
Circuit: *mat_array.cir


Circuit: *mat_array.cir
Date: Tue Mar  5 12:04:47  2019


Operating point information:

	Node	Voltage
	----	-------
	car_icol2243	1.281407e-01
	car_icol2176	1.279338e-01
	car_icol2110	1.275188e-01
	car_icol2045	1.268937e-01
	car_icol1981	1.260556e-01
	car_icol1918	1.250003e-01
	car_icol1856	1.237229e-01
	car_icol1795	1.222176e-01
	car_icol1735	1.204776e-01
	car_icol1676	1.184954e-01
	car_icol1618	1.162627e-01
	car_icol1561	1.137709e-01
	car_icol1505	1.110105e-01
	car_icol1450	1.079720e-01
	car_icol1396	1.046455e-01
	car_icol1343	1.010214e-01
	car_icol1291	9.709022e-02
	car_icol1240	9.284300e-02
	car_icol1190	8.827175e-02
	car_icol1141	8.336968e-02
	car_icol1093	7.813163e-02
	car_icol1046	7.255458e-02
	car_icol1000	6.663811e-02
	car_icol955	6.038497e-02
	car_icol911	5.380170e-02
	car_icol868	4.689932e-02
	car_icol826	3.969394e-02
	car_icol785	3.220753e-02
	car_icol745	2.446862e-02
	car_icol706	1.651297e-02
	car_icol668	8.384229e-03
	car_icol631	1.344165e-04
	memrcol2177	1.281407e-01
	memrcol2111	1.279338e-01
	memrcol2046	1.275188e-01
	memrcol1982	1.268937e-01
	memrcol1919	1.260556e-01
	memrcol1857	1.250003e-01
	memrcol1796	1.237229e-01
	memrcol1736	1.222176e-01
	memrcol1677	1.204776e-01
	memrcol1619	1.184954e-01
	memrcol1562	1.162627e-01
	memrcol1506	1.137709e-01
	memrcol1451	1.110105e-01
	memrcol1397	1.079720e-01
	memrcol1344	1.046455e-01
	memrcol1292	1.010214e-01
	memrcol1241	9.709022e-02
	memrcol1191	9.284300e-02
	memrcol1142	8.827175e-02
	memrcol1094	8.336968e-02
	memrcol1047	7.813163e-02
	memrcol1001	7.255458e-02
	memrcol956	6.663811e-02
	memrcol912	6.038497e-02
	memrcol869	5.380170e-02
	memrcol827	4.689932e-02
	memrcol786	3.969394e-02
	memrcol746	3.220753e-02
	memrcol707	2.446862e-02
	memrcol669	1.651297e-02
	memrcol632	8.384229e-03
	memrcol596	1.344165e-04
	memrrow2178	1.259994e-01
	memrrow2113	1.262446e-01
	memrrow2049	1.267134e-01
	memrrow1986	1.274045e-01
	memrrow1924	1.283160e-01
	memrrow1863	1.294451e-01
	memrrow1803	1.307882e-01
	memrrow1744	1.323409e-01
	memrrow1686	1.340977e-01
	memrrow1629	1.360522e-01
	memrrow1573	1.381967e-01
	memrrow1518	1.405223e-01
	memrrow1464	1.430184e-01
	memrrow1411	1.456730e-01
	memrrow1359	1.484722e-01
	memrrow1308	1.514003e-01
	memrrow1258	1.544393e-01
	memrrow1209	1.575690e-01
	memrrow1161	1.607666e-01
	memrrow1114	1.640068e-01
	memrrow1068	1.672613e-01
	memrrow1023	1.704991e-01
	memrrow979	1.736860e-01
	memrrow936	1.767849e-01
	memrrow894	1.797556e-01
	memrrow853	1.825551e-01
	memrrow813	1.851377e-01
	memrrow774	1.874553e-01
	memrrow736	1.894584e-01
	memrrow699	1.910963e-01
	memrrow663	1.923181e-01
	memrrow628	1.935723e-01
	memrcol2112	1.281620e-01
	memrrow2112	1.259994e-01
	memrcol2047	1.279550e-01
	memrrow2047	1.257831e-01
	memrcol1983	1.275399e-01
	memrrow1983	1.253497e-01
	memrcol1920	1.269148e-01
	memrrow1920	1.246972e-01
	memrcol1858	1.260765e-01
	memrrow1858	1.238230e-01
	memrcol1797	1.250210e-01
	memrrow1797	1.227234e-01
	memrcol1737	1.237435e-01
	memrrow1737	1.213941e-01
	memrcol1678	1.222379e-01
	memrrow1678	1.198298e-01
	memrcol1620	1.204976e-01
	memrrow1620	1.180247e-01
	memrcol1563	1.185150e-01
	memrrow1563	1.159723e-01
	memrcol1507	1.162820e-01
	memrrow1507	1.136657e-01
	memrcol1452	1.137897e-01
	memrrow1452	1.110974e-01
	memrcol1398	1.110289e-01
	memrrow1398	1.082599e-01
	memrcol1345	1.079899e-01
	memrrow1345	1.051454e-01
	memrcol1293	1.046629e-01
	memrrow1293	1.017466e-01
	memrcol1242	1.010382e-01
	memrrow1242	9.805607e-02
	memrcol1192	9.710633e-02
	memrrow1192	9.406737e-02
	memrcol1143	9.285841e-02
	memrrow1143	8.977476e-02
	memrcol1095	8.828640e-02
	memrrow1095	8.517379e-02
	memrcol1048	8.338351e-02
	memrrow1048	8.026156e-02
	memrcol1002	7.814460e-02
	memrrow1002	7.503714e-02
	memrcol957	7.256662e-02
	memrrow957	6.950196e-02
	memrcol913	6.664917e-02
	memrrow913	6.366033e-02
	memrcol870	6.039499e-02
	memrrow870	5.751980e-02
	memrcol828	5.381063e-02
	memrrow828	5.109176e-02
	memrcol787	4.690710e-02
	memrrow787	4.439184e-02
	memrcol747	3.970052e-02
	memrrow747	3.744039e-02
	memrcol708	3.221287e-02
	memrrow708	3.026292e-02
	memrcol670	2.447268e-02
	memrrow670	2.289046e-02
	memrcol633	1.651571e-02
	memrrow633	1.535977e-02
	memrcol597	8.385620e-03
	memrrow597	7.713492e-03
	memrcol562	1.344388e-04
	memrcol2048	1.283995e-01
	memrrow2048	1.262446e-01
	memrcol1984	1.281934e-01
	memrrow1984	1.260291e-01
	memrcol1921	1.277801e-01
	memrrow1921	1.255971e-01
	memrcol1859	1.271576e-01
	memrrow1859	1.249469e-01
	memrcol1798	1.263227e-01
	memrrow1798	1.240756e-01
	memrcol1738	1.252715e-01
	memrrow1738	1.229796e-01
	memrcol1679	1.239989e-01
	memrrow1679	1.216544e-01
	memrcol1621	1.224990e-01
	memrrow1621	1.200947e-01
	memrcol1564	1.207649e-01
	memrrow1564	1.182947e-01
	memrcol1508	1.187890e-01
	memrrow1508	1.162476e-01
	memrcol1453	1.165629e-01
	memrrow1453	1.139463e-01
	memrcol1399	1.140778e-01
	memrrow1399	1.113834e-01
	memrcol1346	1.113242e-01
	memrrow1346	1.085511e-01
	memrcol1294	1.082922e-01
	memrrow1294	1.054414e-01
	memrcol1243	1.049719e-01
	memrrow1243	1.020466e-01
	memrcol1193	1.013532e-01
	memrrow1193	9.835936e-02
	memrcol1144	9.742634e-02
	memrrow1144	9.437271e-02
	memrcol1096	9.318218e-02
	memrrow1096	9.008069e-02
	memrcol1049	8.861231e-02
	memrrow1049	8.547853e-02
	memrcol1003	8.370954e-02
	memrrow1003	8.056298e-02
	memrcol958	7.846831e-02
	memrrow958	7.533279e-02
	memrcol914	7.288513e-02
	memrrow914	6.978903e-02
	memrcol871	6.695911e-02
	memrrow871	6.393567e-02
	memrcol829	6.069252e-02
	memrrow829	5.777997e-02
	memrcol788	5.409145e-02
	memrrow788	5.133301e-02
	memrcol748	4.716641e-02
	memrrow748	4.461021e-02
	memrcol709	3.993313e-02
	memrrow709	3.763178e-02
	memrcol671	3.241321e-02
	memrrow671	3.042322e-02
	memrcol634	2.463496e-02
	memrrow634	2.301567e-02
	memrcol598	1.663405e-02
	memrrow598	1.544618e-02
	memrcol563	8.454225e-03
	memrrow563	7.757906e-03
	memrcol529	1.479050e-04
	memrcol1985	1.288526e-01
	memrrow1985	1.267134e-01
	memrcol1922	1.286483e-01
	memrrow1922	1.264995e-01
	memrcol1860	1.282386e-01
	memrrow1860	1.260707e-01
	memrcol1799	1.276215e-01
	memrrow1799	1.254251e-01
	memrcol1739	1.267937e-01
	memrrow1739	1.245598e-01
	memrcol1680	1.257512e-01
	memrrow1680	1.234712e-01
	memrcol1622	1.244889e-01
	memrrow1622	1.221546e-01
	memrcol1565	1.230005e-01
	memrrow1565	1.206045e-01
	memrcol1509	1.212792e-01
	memrrow1509	1.188149e-01
	memrcol1454	1.193170e-01
	memrrow1454	1.167788e-01
	memrcol1400	1.171055e-01
	memrrow1400	1.144890e-01
	memrcol1347	1.146354e-01
	memrrow1347	1.119374e-01
	memrcol1295	1.118969e-01
	memrrow1295	1.091161e-01
	memrcol1244	1.088797e-01
	memrrow1244	1.060166e-01
	memrcol1194	1.055734e-01
	memrrow1194	1.026309e-01
	memrcol1145	1.019675e-01
	memrrow1145	9.895095e-02
	memrcol1097	9.805171e-02
	memrrow1097	9.496932e-02
	memrcol1050	9.381610e-02
	memrrow1050	9.067945e-02
	memrcol1004	8.925159e-02
	memrrow1004	8.607592e-02
	memrcol959	8.435022e-02
	memrrow959	8.115481e-02
	memrcol915	7.910557e-02
	memrrow915	7.591417e-02
	memrcol872	7.351324e-02
	memrrow872	7.035439e-02
	memrcol830	6.757139e-02
	memrrow830	6.447872e-02
	memrcol789	6.128132e-02
	memrrow789	5.829378e-02
	memrcol749	5.464811e-02
	memrrow749	5.181009e-02
	memrcol710	4.768134e-02
	memrrow710	4.504260e-02
	memrcol672	4.039586e-02
	memrrow672	3.801124e-02
	memrcol635	3.281255e-02
	memrrow635	3.074141e-02
	memrcol599	2.495917e-02
	memrrow599	2.326447e-02
	memrcol564	1.687117e-02
	memrrow564	1.561806e-02
	memrcol530	8.592461e-03
	memrrow530	7.846335e-03
	memrcol497	1.761617e-04
	memrcol1923	1.295195e-01
	memrrow1923	1.274045e-01
	memrcol1861	1.293180e-01
	memrrow1861	1.271930e-01
	memrcol1800	1.289139e-01
	memrrow1800	1.267690e-01
	memrcol1740	1.283050e-01
	memrrow1740	1.261306e-01
	memrcol1681	1.274881e-01
	memrrow1681	1.252746e-01
	memrcol1623	1.264589e-01
	memrrow1623	1.241974e-01
	memrcol1566	1.252122e-01
	memrrow1566	1.228940e-01
	memrcol1510	1.237416e-01
	memrrow1510	1.213587e-01
	memrcol1455	1.220399e-01
	memrrow1455	1.195852e-01
	memrcol1401	1.200989e-01
	memrrow1401	1.175662e-01
	memrcol1348	1.179098e-01
	memrrow1348	1.152940e-01
	memrcol1296	1.154628e-01
	memrrow1296	1.127601e-01
	memrcol1245	1.127476e-01
	memrrow1245	1.099560e-01
	memrcol1195	1.097534e-01
	memrrow1195	1.068728e-01
	memrcol1146	1.064692e-01
	memrrow1146	1.035014e-01
	memrcol1098	1.028835e-01
	memrrow1098	9.983332e-02
	memrcol1051	9.898532e-02
	memrrow1051	9.586020e-02
	memrcol1005	9.476368e-02
	memrrow1005	9.157456e-02
	memrcol960	9.020845e-02
	memrrow960	8.697001e-02
	memrcol916	8.531045e-02
	memrrow916	8.204162e-02
	memrcol873	8.006198e-02
	memrrow873	7.678635e-02
	memrcol831	7.445724e-02
	memrrow831	7.120351e-02
	memrcol790	6.849295e-02
	memrrow790	6.529530e-02
	memrcol750	6.216887e-02
	memrrow750	5.906732e-02
	memrcol711	5.548857e-02
	memrrow711	5.252919e-02
	memrcol673	4.846014e-02
	memrrow673	4.569512e-02
	memrcol636	4.109706e-02
	memrrow636	3.858455e-02
	memrcol600	3.341901e-02
	memrrow600	3.122273e-02
	memrcol565	2.545286e-02
	memrrow565	2.364128e-02
	memrcol531	1.723360e-02
	memrrow531	1.587867e-02
	memrcol498	8.805309e-03
	memrrow498	7.980573e-03
	memrcol466	2.220345e-04
	memrcol1862	1.303979e-01
	memrrow1862	1.283160e-01
	memrcol1801	1.302002e-01
	memrrow1801	1.281078e-01
	memrcol1741	1.298036e-01
	memrrow1741	1.276904e-01
	memrcol1682	1.292059e-01
	memrrow1682	1.270616e-01
	memrcol1624	1.284038e-01
	memrrow1624	1.262185e-01
	memrcol1567	1.273928e-01
	memrrow1567	1.251568e-01
	memrcol1511	1.261674e-01
	memrrow1511	1.238714e-01
	memrcol1456	1.247210e-01
	memrrow1456	1.223565e-01
	memrcol1402	1.230461e-01
	memrrow1402	1.206052e-01
	memrcol1349	1.211341e-01
	memrrow1349	1.186097e-01
	memrcol1297	1.189756e-01
	memrrow1297	1.163618e-01
	memrcol1246	1.165604e-01
	memrrow1246	1.138526e-01
	memrcol1196	1.138775e-01
	memrrow1196	1.110725e-01
	memrcol1147	1.109152e-01
	memrrow1147	1.080120e-01
	memrcol1099	1.076617e-01
	memrrow1099	1.046611e-01
	memrcol1052	1.041046e-01
	memrrow1052	1.010102e-01
	memrcol1006	1.002314e-01
	memrrow1006	9.704985e-02
	memrcol961	9.603018e-02
	memrrow961	9.277133e-02
	memrcol917	9.148915e-02
	memrrow917	8.816693e-02
	memrcol874	8.659756e-02
	memrrow874	8.323030e-02
	memrcol832	8.134594e-02
	memrrow832	7.795696e-02
	memrcol791	7.572662e-02
	memrrow791	7.234471e-02
	memrcol751	6.973426e-02
	memrrow751	6.639427e-02
	memrcol712	6.336657e-02
	memrrow712	6.010983e-02
	memrcol674	5.662496e-02
	memrrow674	5.349972e-02
	memrcol637	4.951545e-02
	memrrow637	4.657708e-02
	memrcol601	4.204951e-02
	memrrow601	3.936061e-02
	memrcol566	3.424509e-02
	memrrow566	3.187524e-02
	memrcol532	2.612770e-02
	memrrow532	2.415290e-02
	memrcol499	1.773153e-02
	memrrow499	1.623307e-02
	memrcol467	9.100631e-03
	memrrow467	8.163397e-03
	memrcol436	2.901108e-04
	memrcol1802	1.314846e-01
	memrrow1802	1.294451e-01
	memrcol1742	1.312917e-01
	memrrow1742	1.292411e-01
	memrcol1683	1.309047e-01
	memrrow1683	1.288321e-01
	memrcol1625	1.303213e-01
	memrrow1625	1.282159e-01
	memrcol1568	1.295381e-01
	memrrow1568	1.273891e-01
	memrcol1512	1.285503e-01
	memrrow1512	1.263474e-01
	memrcol1457	1.273521e-01
	memrrow1457	1.250854e-01
	memrcol1403	1.259368e-01
	memrrow1403	1.235968e-01
	memrcol1350	1.242964e-01
	memrrow1350	1.218741e-01
	memrcol1298	1.224217e-01
	memrrow1298	1.199093e-01
	memrcol1247	1.203028e-01
	memrrow1247	1.176931e-01
	memrcol1197	1.179288e-01
	memrrow1197	1.152161e-01
	memrcol1148	1.152878e-01
	memrrow1148	1.124677e-01
	memrcol1100	1.123674e-01
	memrrow1100	1.094373e-01
	memrcol1053	1.091543e-01
	memrrow1053	1.061139e-01
	memrcol1007	1.056350e-01
	memrrow1007	1.024865e-01
	memrcol962	1.017957e-01
	memrrow962	9.854426e-02
	memrcol918	9.762256e-02
	memrrow918	9.427685e-02
	memrcol875	9.310207e-02
	memrrow875	8.967486e-02
	memrcol833	8.822139e-02
	memrrow833	8.473016e-02
	memrcol792	8.296881e-02
	memrrow792	7.943633e-02
	memrcol752	7.733418e-02
	memrrow752	7.378925e-02
	memrcol713	7.130958e-02
	memrrow713	6.778768e-02
	memrcol675	6.488994e-02
	memrrow675	6.143392e-02
	memrcol638	5.807388e-02
	memrrow638	5.473456e-02
	memrcol602	5.086459e-02
	memrrow602	4.770127e-02
	memrcol567	4.327084e-02
	memrrow567	4.035164e-02
	memrcol533	3.530815e-02
	memrrow533	3.271010e-02
	memrcol500	2.700002e-02
	memrrow500	2.480874e-02
	memrcol468	1.837930e-02
	memrrow468	1.668826e-02
	memrcol437	9.489677e-03
	memrrow437	8.398682e-03
	memrcol407	3.871982e-04
	memrcol1743	1.327751e-01
	memrrow1743	1.307882e-01
	memrcol1684	1.325882e-01
	memrrow1684	1.305895e-01
	memrcol1626	1.322130e-01
	memrrow1626	1.301909e-01
	memrcol1569	1.316473e-01
	memrrow1569	1.295902e-01
	memrcol1513	1.308872e-01
	memrrow1513	1.287837e-01
	memrcol1458	1.299280e-01
	memrrow1458	1.277668e-01
	memrcol1404	1.287636e-01
	memrrow1404	1.265339e-01
	memrcol1351	1.273867e-01
	memrrow1351	1.250780e-01
	memrcol1299	1.257889e-01
	memrrow1299	1.233912e-01
	memrcol1248	1.239605e-01
	memrrow1248	1.214646e-01
	memrcol1198	1.218910e-01
	memrrow1198	1.192885e-01
	memrcol1149	1.195685e-01
	memrrow1149	1.168521e-01
	memrcol1101	1.169802e-01
	memrrow1101	1.141440e-01
	memrcol1054	1.141125e-01
	memrrow1054	1.111524e-01
	memrcol1008	1.109509e-01
	memrrow1008	1.078647e-01
	memrcol963	1.074803e-01
	memrrow963	1.042684e-01
	memrcol919	1.036851e-01
	memrrow919	1.003509e-01
	memrcol876	9.954952e-02
	memrrow876	9.610003e-02
	memrcol834	9.505771e-02
	memrrow834	9.150417e-02
	memrcol793	9.019435e-02
	memrrow793	8.655297e-02
	memrcol753	8.494492e-02
	memrrow753	8.123762e-02
	memrcol714	7.929624e-02
	memrrow714	7.555154e-02
	memrcol676	7.323709e-02
	memrrow676	6.949099e-02
	memrcol639	6.675892e-02
	memrrow639	6.305584e-02
	memrcol603	5.985674e-02
	memrrow603	5.625037e-02
	memrcol568	5.253007e-02
	memrrow568	4.908427e-02
	memrcol534	4.478410e-02
	memrrow534	4.157358e-02
	memrcol501	3.663102e-02
	memrrow501	3.374185e-02
	memrcol469	2.809146e-02
	memrrow469	2.562120e-02
	memrcol438	1.919617e-02
	memrrow438	1.725352e-02
	memrcol408	9.987822e-03
	memrrow408	8.691570e-03
	memrcol379	5.230054e-04
	memrcol1685	1.342644e-01
	memrrow1685	1.323409e-01
	memrcol1627	1.340846e-01
	memrrow1627	1.321485e-01
	memrcol1570	1.337236e-01
	memrrow1570	1.317625e-01
	memrcol1514	1.331789e-01
	memrrow1514	1.311805e-01
	memrcol1459	1.324467e-01
	memrrow1459	1.303986e-01
	memrcol1405	1.315219e-01
	memrrow1405	1.294119e-01
	memrcol1352	1.303980e-01
	memrrow1352	1.282142e-01
	memrcol1300	1.290674e-01
	memrrow1300	1.267981e-01
	memrcol1249	1.275211e-01
	memrrow1249	1.251550e-01
	memrcol1199	1.257490e-01
	memrrow1199	1.232754e-01
	memrcol1150	1.237394e-01
	memrrow1150	1.211484e-01
	memrcol1102	1.214798e-01
	memrrow1102	1.187623e-01
	memrcol1055	1.189562e-01
	memrrow1055	1.161044e-01
	memrcol1009	1.161537e-01
	memrrow1009	1.131614e-01
	memrcol964	1.130562e-01
	memrrow964	1.099192e-01
	memrcol920	1.096469e-01
	memrrow920	1.063632e-01
	memrcol877	1.059080e-01
	memrrow877	1.024789e-01
	memrcol835	1.018214e-01
	memrrow835	9.825166e-02
	memrcol794	9.736870e-02
	memrrow794	9.366746e-02
	memrcol754	9.253145e-02
	memrrow754	8.871313e-02
	memrcol715	8.729177e-02
	memrrow715	8.337697e-02
	memrcol677	8.163277e-02
	memrrow677	7.764932e-02
	memrcol640	7.553921e-02
	memrrow640	7.152334e-02
	memrcol604	6.899821e-02
	memrrow604	6.499576e-02
	memrcol569	6.200023e-02
	memrrow569	5.806794e-02
	memrcol535	5.454012e-02
	memrrow535	5.074689e-02
	memrcol502	4.661841e-02
	memrrow502	4.304652e-02
	memrcol470	3.824281e-02
	memrrow470	3.498897e-02
	memrcol439	2.942994e-02
	memrrow439	2.660602e-02
	memrcol409	2.020731e-02
	memrrow409	1.794069e-02
	memrcol380	1.061559e-02
	memrrow380	9.048688e-03
	memrcol352	7.111132e-04
	memrcol1628	1.359461e-01
	memrrow1628	1.340977e-01
	memrcol1571	1.357746e-01
	memrrow1571	1.339129e-01
	memrcol1515	1.354302e-01
	memrrow1515	1.335419e-01
	memrcol1460	1.349104e-01
	memrrow1460	1.329820e-01
	memrcol1406	1.342110e-01
	memrrow1406	1.322294e-01
	memrcol1353	1.333267e-01
	memrrow1353	1.312785e-01
	memrcol1301	1.322508e-01
	memrrow1301	1.301229e-01
	memrcol1250	1.309750e-01
	memrrow1250	1.287544e-01
	memrcol1200	1.294900e-01
	memrrow1200	1.271639e-01
	memrcol1151	1.277848e-01
	memrrow1151	1.253408e-01
	memrcol1103	1.258469e-01
	memrrow1103	1.232733e-01
	memrcol1056	1.236629e-01
	memrrow1056	1.209484e-01
	memrcol1010	1.212174e-01
	memrrow1010	1.183521e-01
	memrcol965	1.184941e-01
	memrrow965	1.154692e-01
	memrcol921	1.154752e-01
	memrrow921	1.122839e-01
	memrcol878	1.121417e-01
	memrrow878	1.087794e-01
	memrcol836	1.084737e-01
	memrrow836	1.049387e-01
	memrcol795	1.044503e-01
	memrrow795	1.007444e-01
	memrcol755	1.000498e-01
	memrrow755	9.617962e-02
	memrcol716	9.525038e-02
	memrrow716	9.122779e-02
	memrcol678	9.003009e-02
	memrrow678	8.587370e-02
	memrcol641	8.436765e-02
	memrrow641	8.010397e-02
	memrcol605	7.824291e-02
	memrrow605	7.390788e-02
	memrcol570	7.163774e-02
	memrrow570	6.727828e-02
	memrcol536	6.453695e-02
	memrrow536	6.021273e-02
	memrcol503	5.692950e-02
	memrrow503	5.271476e-02
	memrcol471	4.880991e-02
	memrrow471	4.479532e-02
	memrcol440	4.017999e-02
	memrrow440	3.647442e-02
	memrcol410	3.105080e-02
	memrrow410	2.778296e-02
	memrcol381	2.144511e-02
	memrrow381	1.876472e-02
	memrcol353	1.140005e-02
	memrrow353	9.478441e-03
	memrcol326	9.703322e-04
	memrcol1572	1.378125e-01
	memrrow1572	1.360522e-01
	memrcol1516	1.376507e-01
	memrrow1516	1.358762e-01
	memrcol1461	1.373257e-01
	memrrow1461	1.355227e-01
	memrcol1407	1.368347e-01
	memrrow1407	1.349889e-01
	memrcol1354	1.361735e-01
	memrrow1354	1.342706e-01
	memrcol1302	1.353364e-01
	memrrow1302	1.333619e-01
	memrcol1251	1.343163e-01
	memrrow1251	1.322558e-01
	memrcol1201	1.331048e-01
	memrrow1201	1.309437e-01
	memrcol1152	1.316915e-01
	memrrow1152	1.294155e-01
	memrcol1104	1.300649e-01
	memrrow1104	1.276596e-01
	memrcol1057	1.282118e-01
	memrrow1057	1.256632e-01
	memrcol1011	1.261174e-01
	memrrow1011	1.234120e-01
	memrcol966	1.237651e-01
	memrrow966	1.208902e-01
	memrcol922	1.211369e-01
	memrrow922	1.180809e-01
	memrcol879	1.182133e-01
	memrrow879	1.149661e-01
	memrcol837	1.149728e-01
	memrrow837	1.115265e-01
	memrcol796	1.113930e-01
	memrrow796	1.077423e-01
	memrcol756	1.074498e-01
	memrrow756	1.035930e-01
	memrcol717	1.031180e-01
	memrrow717	9.905799e-02
	memrcol679	9.837156e-02
	memrrow679	9.411701e-02
	memrcol642	9.318406e-02
	memrrow642	8.875058e-02
	memrcol606	8.752889e-02
	memrrow606	8.294080e-02
	memrcol571	8.138012e-02
	memrrow571	7.667222e-02
	memrcol537	7.471321e-02
	memrrow537	6.993284e-02
	memrcol504	6.750609e-02
	memrrow504	6.271543e-02
	memrcol472	5.974035e-02
	memrrow472	5.501895e-02
	memrcol441	5.140287e-02
	memrrow441	4.685033e-02
	memrcol411	4.248772e-02
	memrrow411	3.822646e-02
	memrcol382	3.299846e-02
	memrrow382	2.917646e-02
	memrcol354	2.295095e-02
	memrrow354	1.974426e-02
	memrcol327	1.237667e-02
	memrrow327	9.991395e-03
	memrcol301	1.326585e-03
	memrcol1517	1.398550e-01
	memrrow1517	1.381967e-01
	memrcol1462	1.397043e-01
	memrrow1462	1.380309e-01
	memrcol1408	1.394015e-01
	memrrow1408	1.376978e-01
	memrcol1355	1.389436e-01
	memrrow1355	1.371942e-01
	memrcol1303	1.383262e-01
	memrrow1303	1.365157e-01
	memrcol1252	1.375435e-01
	memrrow1252	1.356562e-01
	memrcol1202	1.365880e-01
	memrrow1202	1.346080e-01
	memrcol1153	1.354506e-01
	memrrow1153	1.333617e-01
	memrcol1105	1.341206e-01
	memrrow1105	1.319066e-01
	memrcol1058	1.325857e-01
	memrrow1058	1.302301e-01
	memrcol1012	1.308316e-01
	memrrow1012	1.283180e-01
	memrcol967	1.288424e-01
	memrrow967	1.261545e-01
	memrcol923	1.266003e-01
	memrrow923	1.237222e-01
	memrcol880	1.240854e-01
	memrrow880	1.210022e-01
	memrcol838	1.212761e-01
	memrrow838	1.179738e-01
	memrcol797	1.181486e-01
	memrrow797	1.146152e-01
	memrcol757	1.146774e-01
	memrrow757	1.109032e-01
	memrcol718	1.108349e-01
	memrrow718	1.068139e-01
	memrcol680	1.065921e-01
	memrrow680	1.023224e-01
	memrcol643	1.019182e-01
	memrrow643	9.740393e-02
	memrcol607	9.678137e-02
	memrrow607	9.203406e-02
	memrcol572	9.114894e-02
	memrrow572	8.618945e-02
	memrcol538	8.498811e-02
	memrrow538	7.984890e-02
	memrcol505	7.826673e-02
	memrrow505	7.299443e-02
	memrcol473	7.095430e-02
	memrrow473	6.561272e-02
	memrcol442	6.302334e-02
	memrrow442	5.769686e-02
	memrcol412	5.445108e-02
	memrrow412	4.924835e-02
	memrcol383	4.522157e-02
	memrrow383	4.027957e-02
	memrcol355	3.532830e-02
	memrrow355	3.081658e-02
	memrcol328	2.477746e-02
	memrrow328	2.090243e-02
	memrcol302	1.359182e-02
	memrrow302	1.060077e-02
	memrcol277	1.815495e-03
	memrcol1463	1.420633e-01
	memrrow1463	1.405223e-01
	memrcol1409	1.419253e-01
	memrrow1409	1.403682e-01
	memrcol1356	1.416476e-01
	memrrow1356	1.400584e-01
	memrcol1304	1.412274e-01
	memrrow1304	1.395896e-01
	memrcol1253	1.406600e-01
	memrrow1253	1.389571e-01
	memrcol1203	1.399394e-01
	memrrow1203	1.381543e-01
	memrcol1154	1.390576e-01
	memrrow1154	1.371730e-01
	memrcol1106	1.380053e-01
	memrrow1106	1.360032e-01
	memrcol1059	1.367711e-01
	memrrow1059	1.346333e-01
	memrcol1013	1.353419e-01
	memrrow1013	1.330495e-01
	memrcol968	1.337027e-01
	memrrow968	1.312365e-01
	memrcol924	1.318363e-01
	memrrow924	1.291769e-01
	memrcol881	1.297233e-01
	memrrow881	1.268513e-01
	memrcol839	1.273422e-01
	memrrow839	1.242386e-01
	memrcol798	1.246691e-01
	memrrow798	1.213155e-01
	memrcol758	1.216777e-01
	memrrow758	1.180570e-01
	memrcol719	1.183391e-01
	memrrow719	1.144365e-01
	memrcol681	1.146222e-01
	memrrow681	1.104257e-01
	memrcol644	1.104932e-01
	memrrow644	1.059952e-01
	memrcol608	1.059163e-01
	memrrow608	1.011150e-01
	memrcol573	1.008534e-01
	memrrow573	9.575457e-02
	memrcol539	9.526494e-02
	memrrow539	8.988430e-02
	memrcol506	8.911003e-02
	memrrow506	8.347596e-02
	memrcol474	8.234747e-02
	memrrow474	7.650422e-02
	memrcol443	7.493666e-02
	memrrow443	6.894815e-02
	memrcol413	6.683898e-02
	memrrow413	6.079323e-02
	memrcol384	5.801957e-02
	memrrow384	5.203374e-02
	memrcol356	4.844963e-02
	memrrow356	4.267566e-02
	memrcol329	3.810933e-02
	memrrow329	3.274019e-02
	memrcol303	2.699148e-02
	memrrow303	2.226781e-02
	memrcol278	1.510608e-02
	memrrow278	1.132305e-02
	memrcol254	2.485955e-03
	memrcol1410	1.444258e-01
	memrrow1410	1.430184e-01
	memrcol1357	1.443019e-01
	memrrow1357	1.428777e-01
	memrcol1305	1.440527e-01
	memrrow1305	1.425945e-01
	memrcol1254	1.436750e-01
	memrrow1254	1.421655e-01
	memrcol1204	1.431641e-01
	memrrow1204	1.415856e-01
	memrcol1155	1.425137e-01
	memrrow1155	1.408478e-01
	memrcol1107	1.417157e-01
	memrrow1107	1.399434e-01
	memrcol1060	1.407602e-01
	memrrow1060	1.388618e-01
	memrcol1014	1.396354e-01
	memrrow1014	1.375904e-01
	memrcol969	1.383275e-01
	memrrow969	1.361144e-01
	memrcol925	1.368205e-01
	memrrow925	1.344172e-01
	memrcol882	1.350961e-01
	memrrow882	1.324796e-01
	memrcol840	1.331335e-01
	memrrow840	1.302804e-01
	memrcol799	1.309094e-01
	memrrow799	1.277959e-01
	memrcol759	1.283975e-01
	memrrow759	1.250000e-01
	memrcol720	1.255688e-01
	memrrow720	1.218644e-01
	memrcol682	1.223911e-01
	memrrow682	1.183583e-01
	memrcol645	1.188291e-01
	memrrow645	1.144489e-01
	memrcol609	1.148441e-01
	memrrow609	1.101016e-01
	memrcol574	1.103945e-01
	memrrow574	1.052799e-01
	memrcol540	1.054353e-01
	memrrow540	9.994686e-02
	memrcol507	9.991900e-02
	memrrow507	9.406494e-02
	memrcol475	9.379536e-02
	memrrow475	8.759760e-02
	memrcol444	8.701254e-02
	memrrow444	8.051050e-02
	memrcol414	7.951788e-02
	memrrow414	7.277318e-02
	memrcol385	7.125919e-02
	memrrow385	6.436140e-02
	memrcol357	6.218664e-02
	memrrow357	5.525984e-02
	memrcol330	5.225508e-02
	memrrow330	4.546560e-02
	memrcol304	4.142726e-02
	memrrow304	3.499242e-02
	memrcol279	2.967786e-02
	memrrow279	2.387574e-02
	memrcol255	1.699864e-02
	memrrow255	1.217886e-02
	memrcol232	3.405011e-03
	memrcol1358	1.469289e-01
	memrrow1358	1.456730e-01
	memrcol1306	1.468210e-01
	memrrow1306	1.455474e-01
	memrcol1255	1.466036e-01
	memrrow1255	1.452945e-01
	memrcol1205	1.462736e-01
	memrrow1205	1.449106e-01
	memrcol1156	1.458261e-01
	memrrow1156	1.443904e-01
	memrcol1108	1.452547e-01
	memrrow1108	1.437267e-01
	memrcol1061	1.445510e-01
	memrrow1061	1.429102e-01
	memrcol1015	1.437049e-01
	memrrow1015	1.419296e-01
	memrcol970	1.427042e-01
	memrrow970	1.407714e-01
	memrcol926	1.415343e-01
	memrrow926	1.394200e-01
	memrcol883	1.401785e-01
	memrrow883	1.378572e-01
	memrcol841	1.386175e-01
	memrrow841	1.360622e-01
	memrcol800	1.368290e-01
	memrrow800	1.340117e-01
	memrcol760	1.347879e-01
	memrrow760	1.316794e-01
	memrcol721	1.324657e-01
	memrrow721	1.290363e-01
	memrcol683	1.298304e-01
	memrrow683	1.260503e-01
	memrcol646	1.268464e-01
	memrrow646	1.226862e-01
	memrcol610	1.234740e-01
	memrrow610	1.189061e-01
	memrcol575	1.196693e-01
	memrrow575	1.146693e-01
	memrcol541	1.153841e-01
	memrrow541	1.099324e-01
	memrcol508	1.105661e-01
	memrrow508	1.046504e-01
	memrcol476	1.051585e-01
	memrrow476	9.877674e-02
	memrcol445	9.910046e-02
	memrrow445	9.226495e-02
	memrcol415	9.232782e-02
	memrrow415	8.506961e-02
	memrcol386	8.477356e-02
	memrrow386	7.714846e-02
	memrcol358	7.636919e-02
	memrrow358	6.846479e-02
	memrcol331	6.704638e-02
	memrrow331	5.899068e-02
	memrcol305	5.673948e-02
	memrrow305	4.871100e-02
	memrcol280	4.538868e-02
	memrrow280	3.762847e-02
	memrcol256	3.294445e-02
	memrrow256	2.576993e-02
	memrcol233	1.937317e-02
	memrrow233	1.319393e-02
	memrcol211	4.664568e-03
	memrcol1307	1.495577e-01
	memrrow1307	1.484722e-01
	memrcol1256	1.494674e-01
	memrrow1256	1.483637e-01
	memrcol1206	1.492854e-01
	memrrow1206	1.481448e-01
	memrcol1157	1.490084e-01
	memrrow1157	1.478118e-01
	memrcol1109	1.486316e-01
	memrrow1109	1.473592e-01
	memrcol1062	1.481484e-01
	memrrow1062	1.467793e-01
	memrcol1016	1.475504e-01
	memrrow1016	1.460625e-01
	memrcol971	1.468272e-01
	memrrow971	1.451969e-01
	memrcol927	1.459662e-01
	memrrow927	1.441683e-01
	memrcol884	1.449526e-01
	memrrow884	1.429599e-01
	memrcol842	1.437688e-01
	memrrow842	1.415522e-01
	memrcol801	1.423945e-01
	memrrow801	1.399229e-01
	memrcol761	1.408062e-01
	memrrow761	1.380464e-01
	memrcol722	1.389772e-01
	memrrow722	1.358940e-01
	memrcol684	1.368768e-01
	memrrow684	1.334332e-01
	memrcol647	1.344700e-01
	memrrow647	1.306281e-01
	memrcol611	1.317177e-01
	memrrow611	1.274387e-01
	memrcol576	1.285757e-01
	memrrow576	1.238215e-01
	memrcol542	1.249944e-01
	memrrow542	1.197288e-01
	memrcol509	1.209190e-01
	memrrow509	1.151096e-01
	memrcol477	1.162885e-01
	memrrow477	1.099095e-01
	memrcol446	1.110361e-01
	memrrow446	1.040714e-01
	memrcol416	1.050891e-01
	memrrow416	9.753691e-02
	memrcol387	9.836891e-02
	memrrow387	9.024717e-02
	memrcol359	9.079176e-02
	memrrow359	8.214526e-02
	memrcol332	8.226962e-02
	memrrow332	7.317870e-02
	memrcol306	7.271170e-02
	memrrow306	6.330304e-02
	memrcol281	6.202673e-02
	memrrow281	5.248653e-02
	memrcol257	5.012612e-02
	memrrow257	4.071599e-02
	memrcol234	3.692849e-02
	memrrow234	2.800443e-02
	memrcol212	2.236563e-02
	memrrow212	1.440047e-02
	memrcol191	6.390582e-03
	memrcol1257	1.522949e-01
	memrrow1257	1.514003e-01
	memrcol1207	1.522242e-01
	memrrow1207	1.513109e-01
	memrcol1158	1.520813e-01
	memrrow1158	1.511301e-01
	memrcol1110	1.518629e-01
	memrrow1110	1.508542e-01
	memrcol1063	1.515644e-01
	memrrow1063	1.504774e-01
	memrcol1017	1.511791e-01
	memrrow1017	1.499919e-01
	memrcol972	1.506986e-01
	memrrow972	1.493876e-01
	memrcol928	1.501125e-01
	memrrow928	1.486523e-01
	memrcol885	1.494081e-01
	memrrow885	1.477710e-01
	memrcol843	1.485701e-01
	memrrow843	1.467260e-01
	memrcol802	1.475806e-01
	memrrow802	1.454965e-01
	memrcol762	1.464186e-01
	memrrow762	1.440587e-01
	memrcol723	1.450595e-01
	memrrow723	1.423848e-01
	memrcol685	1.434749e-01
	memrrow685	1.404435e-01
	memrcol648	1.416322e-01
	memrrow648	1.381990e-01
	memrcol612	1.394938e-01
	memrrow612	1.356112e-01
	memrcol577	1.370170e-01
	memrrow577	1.326352e-01
	memrcol543	1.341528e-01
	memrrow543	1.292210e-01
	memrcol510	1.308462e-01
	memrrow510	1.253135e-01
	memrcol478	1.270347e-01
	memrrow478	1.208529e-01
	memrcol447	1.226487e-01
	memrrow447	1.157740e-01
	memrcol417	1.176102e-01
	memrrow417	1.100077e-01
	memrcol388	1.118330e-01
	memrrow388	1.034811e-01
	memrcol360	1.052222e-01
	memrrow360	9.611934e-02
	memrcol333	9.767461e-02
	memrrow333	8.784729e-02
	memrcol307	8.907914e-02
	memrrow307	7.859250e-02
	memrcol282	7.931788e-02
	memrrow282	6.828906e-02
	memrcol258	6.826799e-02
	memrrow258	5.688273e-02
	memrcol235	5.580458e-02
	memrrow235	4.433787e-02
	memrcol213	4.180494e-02
	memrrow213	3.064634e-02
	memrcol192	2.615461e-02
	memrrow192	1.583895e-02
	memrcol172	8.755654e-03
	memrcol1208	1.551217e-01
	memrrow1208	1.544393e-01
	memrcol1159	1.550724e-01
	memrrow1159	1.543711e-01
	memrcol1111	1.549723e-01
	memrrow1111	1.542327e-01
	memrcol1064	1.548183e-01
	memrrow1064	1.540204e-01
	memrcol1018	1.546058e-01
	memrrow1018	1.537283e-01
	memrcol973	1.543284e-01
	memrrow973	1.533484e-01
	memrcol929	1.539779e-01
	memrrow929	1.528706e-01
	memrcol886	1.535438e-01
	memrrow886	1.522820e-01
	memrcol844	1.530136e-01
	memrrow844	1.515672e-01
	memrcol803	1.523720e-01
	memrrow803	1.507078e-01
	memrcol763	1.516009e-01
	memrrow763	1.496819e-01
	memrcol724	1.506787e-01
	memrrow724	1.484642e-01
	memrcol686	1.495802e-01
	memrrow686	1.470250e-01
	memrcol649	1.482757e-01
	memrrow649	1.453303e-01
	memrcol613	1.467310e-01
	memrrow613	1.433411e-01
	memrcol578	1.449059e-01
	memrrow578	1.410128e-01
	memrcol544	1.427544e-01
	memrrow544	1.382953e-01
	memrcol511	1.402231e-01
	memrrow511	1.351318e-01
	memrcol479	1.372511e-01
	memrrow479	1.314592e-01
	memrcol448	1.337687e-01
	memrrow448	1.272074e-01
	memrcol418	1.296964e-01
	memrrow418	1.222995e-01
	memrcol389	1.249446e-01
	memrrow389	1.166519e-01
	memrcol361	1.194120e-01
	memrrow361	1.101750e-01
	memrcol334	1.129857e-01
	memrrow334	1.027744e-01
	memrcol308	1.055402e-01
	memrrow308	9.435270e-02
	memrcol283	9.693733e-02
	memrrow283	8.481224e-02
	memrcol259	8.702695e-02
	memrrow259	7.405927e-02
	memrcol236	7.564779e-02
	memrrow236	6.200953e-02
	memrcol214	6.262970e-02
	memrrow214	4.859596e-02
	memrcol193	4.779725e-02
	memrrow193	3.377902e-02
	memrcol173	3.097515e-02
	memrrow173	1.756025e-02
	memrcol154	1.199629e-02
	memrcol1160	1.580167e-01
	memrrow1160	1.575690e-01
	memrcol1112	1.579907e-01
	memrrow1112	1.575242e-01
	memrcol1065	1.579372e-01
	memrrow1065	1.574328e-01
	memrcol1019	1.578535e-01
	memrrow1019	1.572910e-01
	memrcol974	1.577350e-01
	memrrow974	1.570929e-01
	memrcol930	1.575758e-01
	memrrow930	1.568305e-01
	memrcol887	1.573679e-01
	memrrow887	1.564937e-01
	memrcol845	1.571013e-01
	memrrow845	1.560694e-01
	memrcol804	1.567638e-01
	memrrow804	1.555419e-01
	memrcol764	1.563404e-01
	memrrow764	1.548923e-01
	memrcol725	1.558131e-01
	memrrow725	1.540978e-01
	memrcol687	1.551602e-01
	memrrow687	1.531319e-01
	memrcol650	1.543564e-01
	memrrow650	1.519630e-01
	memrcol614	1.533711e-01
	memrrow614	1.505549e-01
	memrcol579	1.521687e-01
	memrrow579	1.488651e-01
	memrcol545	1.507073e-01
	memrrow545	1.468449e-01
	memrcol512	1.489377e-01
	memrrow512	1.444386e-01
	memrcol480	1.468025e-01
	memrrow480	1.415823e-01
	memrcol449	1.442353e-01
	memrrow449	1.382040e-01
	memrcol419	1.411588e-01
	memrrow419	1.342225e-01
	memrcol390	1.374839e-01
	memrrow390	1.295474e-01
	memrcol362	1.331082e-01
	memrrow362	1.240787e-01
	memrcol335	1.279148e-01
	memrrow335	1.177070e-01
	memrcol309	1.217704e-01
	memrrow309	1.103146e-01
	memrcol284	1.145245e-01
	memrrow284	1.017765e-01
	memrcol260	1.060080e-01
	memrrow260	9.196372e-02
	memrcol237	9.603278e-02
	memrrow237	8.074646e-02
	memrcol215	8.439141e-02
	memrrow215	6.800056e-02
	memrcol194	7.085821e-02
	memrrow194	5.361559e-02
	memrcol174	5.519139e-02
	memrrow174	3.750635e-02
	memrcol155	3.713718e-02
	memrrow155	1.962860e-02
	memrcol137	1.643656e-02
	memrcol1113	1.609564e-01
	memrrow1113	1.607666e-01
	memrcol1066	1.609556e-01
	memrrow1066	1.607476e-01
	memrcol1020	1.609526e-01
	memrrow1020	1.607078e-01
	memrcol975	1.609449e-01
	memrrow975	1.606436e-01
	memrcol931	1.609285e-01
	memrrow931	1.605492e-01
	memrcol888	1.608977e-01
	memrrow888	1.604169e-01
	memrcol846	1.608453e-01
	memrrow846	1.602364e-01
	memrcol805	1.607620e-01
	memrrow805	1.599951e-01
	memrcol765	1.606362e-01
	memrrow765	1.596772e-01
	memrcol726	1.604536e-01
	memrrow726	1.592633e-01
	memrcol688	1.601967e-01
	memrrow688	1.587304e-01
	memrcol651	1.598446e-01
	memrrow651	1.580508e-01
	memrcol615	1.593719e-01
	memrrow615	1.571918e-01
	memrcol580	1.587481e-01
	memrrow580	1.561149e-01
	memrcol546	1.579369e-01
	memrrow546	1.547746e-01
	memrcol513	1.568949e-01
	memrrow513	1.531181e-01
	memrcol481	1.555709e-01
	memrrow481	1.510840e-01
	memrcol450	1.539040e-01
	memrrow450	1.486011e-01
	memrcol420	1.518226e-01
	memrrow420	1.455879e-01
	memrcol391	1.492425e-01
	memrrow391	1.419513e-01
	memrcol363	1.460649e-01
	memrrow363	1.375856e-01
	memrcol336	1.421748e-01
	memrrow336	1.323719e-01
	memrcol310	1.374383e-01
	memrrow310	1.261779e-01
	memrcol285	1.317007e-01
	memrrow285	1.188579e-01
	memrcol261	1.247836e-01
	memrrow261	1.102536e-01
	memrcol238	1.164832e-01
	memrrow238	1.001963e-01
	memrcol216	1.065673e-01
	memrrow216	8.851026e-02
	memrcol195	9.477411e-02
	memrrow195	7.501857e-02
	memrcol175	8.081097e-02
	memrrow175	5.955131e-02
	memrcol156	6.435403e-02
	memrrow156	4.195810e-02
	memrcol138	4.505007e-02
	memrrow138	2.212529e-02
	memrcol121	2.252048e-02
	memrcol1067	1.639152e-01
	memrrow1067	1.640068e-01
	memrcol1021	1.639413e-01
	memrrow1021	1.640159e-01
	memrcol976	1.639925e-01
	memrrow976	1.640325e-01
	memrcol932	1.640665e-01
	memrrow932	1.640532e-01
	memrcol889	1.641598e-01
	memrrow889	1.640724e-01
	memrcol847	1.642677e-01
	memrrow847	1.640830e-01
	memrcol806	1.643837e-01
	memrrow806	1.640751e-01
	memrcol766	1.644994e-01
	memrrow766	1.640363e-01
	memrcol727	1.646045e-01
	memrrow727	1.639512e-01
	memrcol689	1.646858e-01
	memrrow689	1.638007e-01
	memrcol652	1.647271e-01
	memrrow652	1.635618e-01
	memrcol616	1.647084e-01
	memrrow616	1.632063e-01
	memrcol581	1.646055e-01
	memrrow581	1.627007e-01
	memrcol547	1.643884e-01
	memrrow547	1.620045e-01
	memrcol514	1.640212e-01
	memrrow514	1.610700e-01
	memrcol482	1.634602e-01
	memrrow482	1.598403e-01
	memrcol451	1.626528e-01
	memrrow451	1.582486e-01
	memrcol421	1.615358e-01
	memrrow421	1.562166e-01
	memrcol392	1.600334e-01
	memrrow392	1.536526e-01
	memrcol364	1.580553e-01
	memrrow364	1.504505e-01
	memrcol337	1.554939e-01
	memrrow337	1.464879e-01
	memrcol311	1.522217e-01
	memrrow311	1.416248e-01
	memrcol286	1.480879e-01
	memrrow286	1.357019e-01
	memrcol262	1.429152e-01
	memrrow262	1.285405e-01
	memrcol239	1.364958e-01
	memrrow239	1.199415e-01
	memrcol217	1.285870e-01
	memrrow217	1.096872e-01
	memrcol196	1.189074e-01
	memrrow196	9.754283e-02
	memrcol176	1.071324e-01
	memrrow176	8.326204e-02
	memrcol157	9.288970e-02
	memrrow157	6.659421e-02
	memrcol139	7.575626e-02
	memrrow139	4.729683e-02
	memrcol122	5.525544e-02
	memrrow122	2.515351e-02
	memrcol106	3.085645e-02
	memrcol1022	1.668648e-01
	memrrow1022	1.672613e-01
	memrcol977	1.669196e-01
	memrrow977	1.673009e-01
	memrcol933	1.670284e-01
	memrrow933	1.673787e-01
	memrcol890	1.671894e-01
	memrrow890	1.674915e-01
	memrcol848	1.673999e-01
	memrrow848	1.676346e-01
	memrcol807	1.676562e-01
	memrrow807	1.678011e-01
	memrcol767	1.679528e-01
	memrrow767	1.679820e-01
	memrcol728	1.682831e-01
	memrrow728	1.681660e-01
	memrcol690	1.686381e-01
	memrrow690	1.683381e-01
	memrcol653	1.690065e-01
	memrrow653	1.684803e-01
	memrcol617	1.693739e-01
	memrrow617	1.685699e-01
	memrcol582	1.697224e-01
	memrrow582	1.685791e-01
	memrcol548	1.700295e-01
	memrrow548	1.684739e-01
	memrcol515	1.702671e-01
	memrrow515	1.682132e-01
	memrcol483	1.704007e-01
	memrrow483	1.677472e-01
	memrcol452	1.703875e-01
	memrrow452	1.670157e-01
	memrcol422	1.701751e-01
	memrrow422	1.659471e-01
	memrcol393	1.696995e-01
	memrrow393	1.644556e-01
	memrcol365	1.688823e-01
	memrrow365	1.624398e-01
	memrcol338	1.676286e-01
	memrrow338	1.597797e-01
	memrcol312	1.658235e-01
	memrrow312	1.563348e-01
	memrcol287	1.633282e-01
	memrrow287	1.519410e-01
	memrcol263	1.599761e-01
	memrrow263	1.464084e-01
	memrcol240	1.555673e-01
	memrrow240	1.395191e-01
	memrcol218	1.498633e-01
	memrrow218	1.310250e-01
	memrcol197	1.425808e-01
	memrrow197	1.206470e-01
	memrcol177	1.333840e-01
	memrrow177	1.080757e-01
	memrcol158	1.218777e-01
	memrrow158	9.297356e-02
	memrcol140	1.075980e-01
	memrrow140	7.498099e-02
	memrcol123	9.000443e-02
	memrrow123	5.372672e-02
	memrcol107	6.847100e-02
	memrrow107	2.884467e-02
	memrcol92	4.227807e-02
	memrcol978	1.697747e-01
	memrrow978	1.704991e-01
	memrcol934	1.698597e-01
	memrrow934	1.705715e-01
	memrcol891	1.700292e-01
	memrrow891	1.707151e-01
	memrcol849	1.702821e-01
	memrrow849	1.709273e-01
	memrcol808	1.706166e-01
	memrrow808	1.712040e-01
	memrcol768	1.710301e-01
	memrrow768	1.715395e-01
	memrcol729	1.715191e-01
	memrrow729	1.719259e-01
	memrcol691	1.720785e-01
	memrrow691	1.723530e-01
	memrcol654	1.727017e-01
	memrrow654	1.728075e-01
	memrcol618	1.733798e-01
	memrrow618	1.732726e-01
	memrcol583	1.741012e-01
	memrrow583	1.737270e-01
	memrcol549	1.748508e-01
	memrrow549	1.741440e-01
	memrcol516	1.756091e-01
	memrrow516	1.744903e-01
	memrcol484	1.763512e-01
	memrrow484	1.747248e-01
	memrcol453	1.770455e-01
	memrrow453	1.747966e-01
	memrcol423	1.776520e-01
	memrrow423	1.746434e-01
	memrcol394	1.781203e-01
	memrrow394	1.741895e-01
	memrcol366	1.783875e-01
	memrrow366	1.733424e-01
	memrcol339	1.783754e-01
	memrrow339	1.719909e-01
	memrcol313	1.779868e-01
	memrrow313	1.700009e-01
	memrcol288	1.771020e-01
	memrrow288	1.672123e-01
	memrcol264	1.755735e-01
	memrrow264	1.634347e-01
	memrcol241	1.732210e-01
	memrrow241	1.584433e-01
	memrcol219	1.698241e-01
	memrrow219	1.519741e-01
	memrcol198	1.651147e-01
	memrrow198	1.437199e-01
	memrcol178	1.587679e-01
	memrrow178	1.333262e-01
	memrcol159	1.503915e-01
	memrrow159	1.203883e-01
	memrcol141	1.395134e-01
	memrrow141	1.044501e-01
	memrcol124	1.255679e-01
	memrrow124	8.500561e-02
	memrcol108	1.078804e-01
	memrrow108	6.150486e-02
	memrcol93	8.564919e-02
	memrrow93	3.336656e-02
	memrcol79	5.792749e-02
	memrcol935	1.726122e-01
	memrrow935	1.736860e-01
	memrcol892	1.727287e-01
	memrrow892	1.737933e-01
	memrcol850	1.729614e-01
	memrrow850	1.740072e-01
	memrcol809	1.733102e-01
	memrrow809	1.743256e-01
	memrcol769	1.737745e-01
	memrrow769	1.747456e-01
	memrcol730	1.743532e-01
	memrrow730	1.752626e-01
	memrcol692	1.750447e-01
	memrrow692	1.758706e-01
	memrcol655	1.758465e-01
	memrrow655	1.765613e-01
	memrcol619	1.767547e-01
	memrrow619	1.773233e-01
	memrcol584	1.777638e-01
	memrrow584	1.781423e-01
	memrcol550	1.788658e-01
	memrrow550	1.789991e-01
	memrcol517	1.800498e-01
	memrrow517	1.798692e-01
	memrcol485	1.813005e-01
	memrrow485	1.807212e-01
	memrcol454	1.825980e-01
	memrrow454	1.815154e-01
	memrcol424	1.839153e-01
	memrrow424	1.822012e-01
	memrcol395	1.852173e-01
	memrrow395	1.827157e-01
	memrcol367	1.864585e-01
	memrrow367	1.829800e-01
	memrcol340	1.875801e-01
	memrrow340	1.828965e-01
	memrcol314	1.885069e-01
	memrrow314	1.823446e-01
	memrcol289	1.891436e-01
	memrrow289	1.811764e-01
	memrcol265	1.893694e-01
	memrrow265	1.792116e-01
	memrcol242	1.890327e-01
	memrrow242	1.762310e-01
	memrcol220	1.879438e-01
	memrrow220	1.719701e-01
	memrcol199	1.858660e-01
	memrrow199	1.661120e-01
	memrcol179	1.825056e-01
	memrrow179	1.582784e-01
	memrcol160	1.774993e-01
	memrrow160	1.480221e-01
	memrcol142	1.703993e-01
	memrrow142	1.348181e-01
	memrcol125	1.606554e-01
	memrrow125	1.180560e-01
	memrcol109	1.475942e-01
	memrrow109	9.703397e-02
	memrcol94	1.303939e-01
	memrrow94	7.095590e-02
	memrcol80	1.080556e-01
	memrrow80	3.893403e-02
	memrcol67	7.936966e-02
	memrcol893	1.753423e-01
	memrrow893	1.767849e-01
	memrcol851	1.754911e-01
	memrrow851	1.769291e-01
	memrcol810	1.757891e-01
	memrrow810	1.772172e-01
	memrcol770	1.762369e-01
	memrrow770	1.776480e-01
	memrcol731	1.768353e-01
	memrrow731	1.782200e-01
	memrcol693	1.775853e-01
	memrrow693	1.789305e-01
	memrcol656	1.784877e-01
	memrrow656	1.797754e-01
	memrcol620	1.795430e-01
	memrrow620	1.807492e-01
	memrcol585	1.807509e-01
	memrrow585	1.818435e-01
	memrcol551	1.821100e-01
	memrrow551	1.830472e-01
	memrcol518	1.836172e-01
	memrrow518	1.843445e-01
	memrcol486	1.852668e-01
	memrrow486	1.857146e-01
	memrcol455	1.870499e-01
	memrrow455	1.871294e-01
	memrcol425	1.889530e-01
	memrrow425	1.885522e-01
	memrcol396	1.909564e-01
	memrrow396	1.899350e-01
	memrcol368	1.930328e-01
	memrrow368	1.912155e-01
	memrcol341	1.951446e-01
	memrrow341	1.923144e-01
	memrcol315	1.972410e-01
	memrrow315	1.931302e-01
	memrcol290	1.992547e-01
	memrrow290	1.935350e-01
	memrcol266	2.010971e-01
	memrrow266	1.933678e-01
	memrcol243	2.026526e-01
	memrrow243	1.924276e-01
	memrcol221	2.037721e-01
	memrrow221	1.904650e-01
	memrcol200	2.042639e-01
	memrrow200	1.871716e-01
	memrcol180	2.038832e-01
	memrrow180	1.821691e-01
	memrcol161	2.023191e-01
	memrrow161	1.749951e-01
	memrcol143	1.991783e-01
	memrrow143	1.650887e-01
	memrcol126	1.939652e-01
	memrrow126	1.517734e-01
	memrcol110	1.860574e-01
	memrrow110	1.342389e-01
	memrcol95	1.746764e-01
	memrrow95	1.115225e-01
	memrcol81	1.588512e-01
	memrrow81	8.249074e-02
	memrcol68	1.373743e-01
	memrrow68	4.582294e-02
	memrcol56	1.087488e-01
	memrcol852	1.779282e-01
	memrrow852	1.797556e-01
	memrcol811	1.781098e-01
	memrrow811	1.799383e-01
	memrcol771	1.784740e-01
	memrrow771	1.803039e-01
	memrcol732	1.790224e-01
	memrrow732	1.808525e-01
	memrcol694	1.797576e-01
	memrrow694	1.815841e-01
	memrcol657	1.806828e-01
	memrrow657	1.824983e-01
	memrcol621	1.818019e-01
	memrrow621	1.835941e-01
	memrcol586	1.831188e-01
	memrrow586	1.848692e-01
	memrcol552	1.846378e-01
	memrrow552	1.863192e-01
	memrcol519	1.863625e-01
	memrrow519	1.879374e-01
	memrcol487	1.882958e-01
	memrrow487	1.897131e-01
	memrcol456	1.904391e-01
	memrrow456	1.916305e-01
	memrcol426	1.927914e-01
	memrrow426	1.936671e-01
	memrcol397	1.953480e-01
	memrrow397	1.957912e-01
	memrcol369	1.980997e-01
	memrrow369	1.979596e-01
	memrcol342	2.010300e-01
	memrrow342	2.001141e-01
	memrcol316	2.041137e-01
	memrrow316	2.021769e-01
	memrcol291	2.073130e-01
	memrrow291	2.040461e-01
	memrcol267	2.105745e-01
	memrrow267	2.055885e-01
	memrcol244	2.138235e-01
	memrrow244	2.066324e-01
	memrcol222	2.169583e-01
	memrrow222	2.069572e-01
	memrcol201	2.198421e-01
	memrrow201	2.062818e-01
	memrcol181	2.222932e-01
	memrrow181	2.042504e-01
	memrcol162	2.240718e-01
	memrrow162	2.004148e-01
	memrcol144	2.248651e-01
	memrrow144	1.942134e-01
	memrcol127	2.242664e-01
	memrrow127	1.849469e-01
	memrcol111	2.217502e-01
	memrrow111	1.717484e-01
	memrcol96	2.166412e-01
	memrrow96	1.535497e-01
	memrcol82	2.080740e-01
	memrrow82	1.290418e-01
	memrcol69	1.949445e-01
	memrrow69	9.663080e-02
	memrcol57	1.758480e-01
	memrrow57	5.438838e-02
	memrcol46	1.490028e-01
	memrcol812	1.803313e-01
	memrrow812	1.825551e-01
	memrcol772	1.805457e-01
	memrrow772	1.827775e-01
	memrcol733	1.809758e-01
	memrrow733	1.832230e-01
	memrcol695	1.816249e-01
	memrrow695	1.838933e-01
	memrcol658	1.824972e-01
	memrrow658	1.847904e-01
	memrcol622	1.835989e-01
	memrrow622	1.859168e-01
	memrcol587	1.849369e-01
	memrrow587	1.872750e-01
	memrcol553	1.865197e-01
	memrrow553	1.888671e-01
	memrcol520	1.883566e-01
	memrrow520	1.906939e-01
	memrcol488	1.904575e-01
	memrrow488	1.927544e-01
	memrcol457	1.928327e-01
	memrrow457	1.950446e-01
	memrcol427	1.954922e-01
	memrrow427	1.975559e-01
	memrcol398	1.984452e-01
	memrrow398	2.002737e-01
	memrcol370	2.016988e-01
	memrrow370	2.031743e-01
	memrcol343	2.052570e-01
	memrrow343	2.062225e-01
	memrcol317	2.091188e-01
	memrrow317	2.093672e-01
	memrcol292	2.132764e-01
	memrrow292	2.125367e-01
	memrcol268	2.177117e-01
	memrrow268	2.156322e-01
	memrcol245	2.223928e-01
	memrrow245	2.185199e-01
	memrcol223	2.272690e-01
	memrrow223	2.210202e-01
	memrcol202	2.322641e-01
	memrrow202	2.228956e-01
	memrcol182	2.372682e-01
	memrrow182	2.238342e-01
	memrcol163	2.421267e-01
	memrrow163	2.234294e-01
	memrcol145	2.466262e-01
	memrrow145	2.211548e-01
	memrcol128	2.504763e-01
	memrrow128	2.163331e-01
	memrcol112	2.532863e-01
	memrrow112	2.080971e-01
	memrcol97	2.545355e-01
	memrrow97	1.953421e-01
	memrcol83	2.535341e-01
	memrrow83	1.766679e-01
	memrcol70	2.493748e-01
	memrrow70	1.503070e-01
	memrcol58	2.408692e-01
	memrrow58	1.140393e-01
	memrcol47	2.264677e-01
	memrrow47	6.508860e-02
	memrcol37	2.041571e-01
	memrcol773	1.825121e-01
	memrrow773	1.851377e-01
	memrcol734	1.827583e-01
	memrrow734	1.854002e-01
	memrcol696	1.832530e-01
	memrrow696	1.859270e-01
	memrcol659	1.840005e-01
	memrrow659	1.867211e-01
	memrcol623	1.850076e-01
	memrrow623	1.877873e-01
	memrcol588	1.862831e-01
	memrrow588	1.891315e-01
	memrcol554	1.878381e-01
	memrrow554	1.907605e-01
	memrcol521	1.896858e-01
	memrrow521	1.926817e-01
	memrcol489	1.918416e-01
	memrrow489	1.949026e-01
	memrcol458	1.943228e-01
	memrrow458	1.974295e-01
	memrcol428	1.971484e-01
	memrrow428	2.002671e-01
	memrcol399	2.003390e-01
	memrrow399	2.034166e-01
	memrcol371	2.039162e-01
	memrrow371	2.068739e-01
	memrcol344	2.079020e-01
	memrrow344	2.106269e-01
	memrcol318	2.123177e-01
	memrrow318	2.146524e-01
	memrcol293	2.171828e-01
	memrrow293	2.189113e-01
	memrcol269	2.225132e-01
	memrrow269	2.233432e-01
	memrcol246	2.283184e-01
	memrrow246	2.278580e-01
	memrcol224	2.345985e-01
	memrrow224	2.323267e-01
	memrcol203	2.413394e-01
	memrrow203	2.365684e-01
	memrcol183	2.485068e-01
	memrrow183	2.403329e-01
	memrcol164	2.560377e-01
	memrrow164	2.432800e-01
	memrcol146	2.638301e-01
	memrrow146	2.449513e-01
	memrcol129	2.717277e-01
	memrrow129	2.447347e-01
	memrcol113	2.795018e-01
	memrrow113	2.418189e-01
	memrcol98	2.868252e-01
	memrrow98	2.351348e-01
	memrcol84	2.932401e-01
	memrrow84	2.232816e-01
	memrcol71	2.981137e-01
	memrrow71	2.044326e-01
	memrcol59	3.005825e-01
	memrrow59	1.762155e-01
	memrcol48	2.994769e-01
	memrrow48	1.355616e-01
	memrcol38	2.932254e-01
	memrrow38	7.851627e-02
	memrcol29	2.797271e-01
	memrcol735	1.844303e-01
	memrrow735	1.874553e-01
	memrcol697	1.847068e-01
	memrrow697	1.877578e-01
	memrcol660	1.852627e-01
	memrrow660	1.883655e-01
	memrcol624	1.861041e-01
	memrrow624	1.892833e-01
	memrcol589	1.872400e-01
	memrrow589	1.905191e-01
	memrcol555	1.886825e-01
	memrrow555	1.920829e-01
	memrcol522	1.904470e-01
	memrrow522	1.939866e-01
	memrcol490	1.925523e-01
	memrrow490	1.962443e-01
	memrcol459	1.950205e-01
	memrrow459	1.988713e-01
	memrcol429	1.978774e-01
	memrrow429	2.018833e-01
	memrcol400	2.011522e-01
	memrrow400	2.052959e-01
	memrcol372	2.048780e-01
	memrrow372	2.091228e-01
	memrcol345	2.090915e-01
	memrrow345	2.133743e-01
	memrcol319	2.138327e-01
	memrrow319	2.180540e-01
	memrcol294	2.191450e-01
	memrrow294	2.231558e-01
	memrcol270	2.250739e-01
	memrrow270	2.286588e-01
	memrcol247	2.316669e-01
	memrrow247	2.345202e-01
	memrcol225	2.389711e-01
	memrrow225	2.406669e-01
	memrcol204	2.470313e-01
	memrrow204	2.469833e-01
	memrcol184	2.558869e-01
	memrrow184	2.532948e-01
	memrcol165	2.655668e-01
	memrrow165	2.593471e-01
	memrcol147	2.760830e-01
	memrrow147	2.647775e-01
	memrcol130	2.874212e-01
	memrrow130	2.690773e-01
	memrcol114	2.995285e-01
	memrrow114	2.715427e-01
	memrcol99	3.122955e-01
	memrrow99	2.712095e-01
	memrcol85	3.255332e-01
	memrrow85	2.667677e-01
	memrcol72	3.389405e-01
	memrrow72	2.564493e-01
	memrcol60	3.520615e-01
	memrrow60	2.378819e-01
	memrcol49	3.642268e-01
	memrrow49	2.078964e-01
	memrcol39	3.744761e-01
	memrrow39	1.622780e-01
	memrcol30	3.814539e-01
	memrrow30	9.543970e-02
	memrcol22	3.832698e-01
	memrcol698	1.860460e-01
	memrrow698	1.894584e-01
	memrcol661	1.863502e-01
	memrrow661	1.897997e-01
	memrcol625	1.869622e-01
	memrrow625	1.904859e-01
	memrcol590	1.878898e-01
	memrrow590	1.915244e-01
	memrcol556	1.891444e-01
	memrrow556	1.929265e-01
	memrcol523	1.907418e-01
	memrrow523	1.947067e-01
	memrcol491	1.927020e-01
	memrrow491	1.968834e-01
	memrcol460	1.950496e-01
	memrrow460	1.994783e-01
	memrcol430	1.978144e-01
	memrrow430	2.025160e-01
	memrcol401	2.010314e-01
	memrrow401	2.060239e-01
	memrcol373	2.047417e-01
	memrrow373	2.100311e-01
	memrcol346	2.089926e-01
	memrrow346	2.145672e-01
	memrcol320	2.138385e-01
	memrrow320	2.196608e-01
	memrcol295	2.193413e-01
	memrrow295	2.253366e-01
	memrcol271	2.255711e-01
	memrrow271	2.316119e-01
	memrcol248	2.326066e-01
	memrrow248	2.384913e-01
	memrcol226	2.405353e-01
	memrrow226	2.459591e-01
	memrcol205	2.494542e-01
	memrrow205	2.539694e-01
	memrcol185	2.594689e-01
	memrrow185	2.624311e-01
	memrcol166	2.706936e-01
	memrrow166	2.711891e-01
	memrcol148	2.832489e-01
	memrrow148	2.799966e-01
	memrcol131	2.972588e-01
	memrrow131	2.884789e-01
	memrcol115	3.128468e-01
	memrrow115	2.960832e-01
	memrcol100	3.301279e-01
	memrrow100	3.020111e-01
	memrcol86	3.491979e-01
	memrrow86	3.051274e-01
	memrcol73	3.701177e-01
	memrrow73	3.038366e-01
	memrcol61	3.928901e-01
	memrrow61	2.959177e-01
	memrcol50	4.174271e-01
	memrrow50	2.783016e-01
	memrcol40	4.435041e-01
	memrrow40	2.467729e-01
	memrcol31	4.706952e-01
	memrrow31	1.955711e-01
	memrcol23	4.982839e-01
	memrrow23	1.168569e-01
	memrcol16	5.251395e-01
	memrcol662	1.873205e-01
	memrrow662	1.910963e-01
	memrcol626	1.876486e-01
	memrrow626	1.914738e-01
	memrcol591	1.883093e-01
	memrrow591	1.922339e-01
	memrcol557	1.893120e-01
	memrrow557	1.933865e-01
	memrcol524	1.906707e-01
	memrrow524	1.949465e-01
	memrcol492	1.924047e-01
	memrrow492	1.969341e-01
	memrcol461	1.945388e-01
	memrrow461	1.993747e-01
	memrcol431	1.971040e-01
	memrrow431	2.022988e-01
	memrcol402	2.001381e-01
	memrrow402	2.057424e-01
	memrcol374	2.036862e-01
	memrrow374	2.097464e-01
	memrcol347	2.078022e-01
	memrrow347	2.143565e-01
	memrcol321	2.125496e-01
	memrrow321	2.196220e-01
	memrcol296	2.180032e-01
	memrrow296	2.255948e-01
	memrcol272	2.242504e-01
	memrrow272	2.323267e-01
	memrcol249	2.313933e-01
	memrrow249	2.398662e-01
	memrcol227	2.395508e-01
	memrrow227	2.482530e-01
	memrcol206	2.488613e-01
	memrrow206	2.575100e-01
	memrcol186	2.594857e-01
	memrrow186	2.676319e-01
	memrcol167	2.716103e-01
	memrrow167	2.785685e-01
	memrcol149	2.854508e-01
	memrrow149	2.902008e-01
	memrcol132	3.012561e-01
	memrrow132	3.023082e-01
	memrcol116	3.193126e-01
	memrrow116	3.145207e-01
	memrcol101	3.399488e-01
	memrrow101	3.262541e-01
	memrcol87	3.635389e-01
	memrrow87	3.366179e-01
	memrcol74	3.905073e-01
	memrrow74	3.442897e-01
	memrcol62	4.213303e-01
	memrrow62	3.473398e-01
	memrcol51	4.565369e-01
	memrrow51	3.429907e-01
	memrcol41	4.967053e-01
	memrrow41	3.272871e-01
	memrcol32	5.424546e-01
	memrrow32	2.946416e-01
	memrcol24	5.944266e-01
	memrrow24	2.372149e-01
	memrcol17	6.532565e-01
	memrrow17	1.440669e-01
	memrcol11	7.195232e-01
	memrcol627	1.882174e-01
	memrrow627	1.923181e-01
	memrcol592	1.885644e-01
	memrrow592	1.927281e-01
	memrcol558	1.892640e-01
	memrrow558	1.935546e-01
	memrcol525	1.903267e-01
	memrrow525	1.948101e-01
	memrcol493	1.917693e-01
	memrrow493	1.965139e-01
	memrcol462	1.936146e-01
	memrrow462	1.986922e-01
	memrcol432	1.958921e-01
	memrrow432	2.013783e-01
	memrcol403	1.986390e-01
	memrrow403	2.046129e-01
	memrcol375	2.019013e-01
	memrrow375	2.084450e-01
	memrcol348	2.057349e-01
	memrrow348	2.129314e-01
	memrcol322	2.102072e-01
	memrrow322	2.181375e-01
	memrcol297	2.153995e-01
	memrrow297	2.241367e-01
	memrcol273	2.214088e-01
	memrrow273	2.310095e-01
	memrcol250	2.283519e-01
	memrrow250	2.388424e-01
	memrcol228	2.363681e-01
	memrrow228	2.477244e-01
	memrcol207	2.456247e-01
	memrrow207	2.577420e-01
	memrcol187	2.563225e-01
	memrrow187	2.689713e-01
	memrcol168	2.687027e-01
	memrrow168	2.814655e-01
	memrcol150	2.830559e-01
	memrrow150	2.952359e-01
	memrcol133	2.997330e-01
	memrrow133	3.102244e-01
	memrcol117	3.191582e-01
	memrrow117	3.262620e-01
	memrcol102	3.418457e-01
	memrrow102	3.430100e-01
	memrcol88	3.684202e-01
	memrrow88	3.598745e-01
	memrcol75	3.996421e-01
	memrrow75	3.758843e-01
	memrcol63	4.364385e-01
	memrrow63	3.895184e-01
	memrcol52	4.799420e-01
	memrrow52	3.984605e-01
	memrcol42	5.315383e-01
	memrrow42	3.992544e-01
	memrcol33	5.929254e-01
	memrrow33	3.868200e-01
	memrcol25	6.661864e-01
	memrrow25	3.537750e-01
	memrcol18	7.538793e-01
	memrrow18	2.894888e-01
	memrcol12	8.591481e-01
	memrrow12	1.787636e-01
	memrcol7	9.858592e-01
	memrcol593	1.887042e-01
	memrrow593	1.935723e-01
	memrcol559	1.890640e-01
	memrrow559	1.940591e-01
	memrcol526	1.897896e-01
	memrrow526	1.950454e-01
	memrcol494	1.908932e-01
	memrrow494	1.965573e-01
	memrcol463	1.923936e-01
	memrrow463	1.986357e-01
	memrcol433	1.943167e-01
	memrrow433	2.013382e-01
	memrcol404	1.966967e-01
	memrrow404	2.047429e-01
	memrcol376	1.995766e-01
	memrrow376	2.089522e-01
	memrcol349	2.030102e-01
	memrrow349	2.140991e-01
	memrcol323	2.070640e-01
	memrrow323	2.203549e-01
	memrcol298	2.118193e-01
	memrrow298	2.279397e-01
	memrcol274	2.173756e-01
	memrrow274	2.371366e-01
	memrcol251	2.238544e-01
	memrrow251	2.483096e-01
	memrcol229	2.314042e-01
	memrrow229	2.619282e-01
	memrcol208	2.402073e-01
	memrrow208	2.785991e-01
	memrcol188	2.504869e-01
	memrrow188	2.991092e-01
	memrcol169	2.625188e-01
	memrrow169	3.244816e-01
	memrcol151	2.766434e-01
	memrrow151	3.560502e-01
	memrcol134	2.932835e-01
	memrrow134	3.955595e-01
	memrcol118	3.129660e-01
	memrrow118	4.452964e-01
	memrcol103	3.363498e-01
	memrrow103	5.082664e-01
	memrcol89	3.642622e-01
	memrrow89	5.884280e-01
	memrcol76	3.977462e-01
	memrrow76	6.910062e-01
	memrcol64	4.381210e-01
	memrrow64	8.229104e-01
	memrcol53	4.870617e-01
	memrrow53	9.932935e-01
	memrcol43	5.467018e-01
	memrrow43	1.214300e+00
	memrcol34	6.197681e-01
	memrrow34	1.502066e+00
	memrcol26	7.097560e-01
	memrrow26	1.878062e+00
	memrcol19	8.211593e-01
	memrrow19	2.370888e+00
	memrcol13	9.597710e-01
	memrrow13	3.018688e+00
	memrcol8	1.133078e+00
	memrrow8	3.872379e+00
	memrcol4	1.350781e+00
	memrrow562	7.726936e-15
	memrrow529	7.772696e-15
	memrrow497	7.863951e-15
	memrrow466	8.002777e-15
	memrrow436	8.192408e-15
	memrrow407	8.437402e-15
	memrrow379	8.743871e-15
	memrrow352	9.119800e-15
	memrrow326	9.575475e-15
	memrrow301	1.012405e-14
	memrrow277	1.078232e-14
	memrrow254	1.157165e-14
	memrrow232	1.251936e-14
	memrrow211	1.366038e-14
	memrrow191	1.503953e-14
	memrrow172	1.671452e-14
	memrrow154	1.875988e-14
	memrrow137	2.127226e-14
	memrrow121	2.437734e-14
	memrrow106	2.823916e-14
	memrrow92	3.307248e-14
	memrrow79	3.915931e-14
	memrrow67	4.687100e-14
	memrrow56	5.669781e-14
	memrrow46	6.928866e-14
	memrrow37	8.550431e-14
	memrrow29	1.064890e-13
	memrrow22	1.337667e-13
	memrrow16	1.693709e-13
	memrrow11	2.160192e-13
	memrrow7	2.773496e-13
	memrrow4	5.000000e+00
	v_32	0.000000e+00
	v_31	0.000000e+00
	v_30	0.000000e+00
	v_29	0.000000e+00
	v_28	0.000000e+00
	v_27	0.000000e+00
	v_26	0.000000e+00
	v_25	0.000000e+00
	v_24	0.000000e+00
	v_23	0.000000e+00
	v_22	0.000000e+00
	v_21	0.000000e+00
	v_20	0.000000e+00
	v_19	0.000000e+00
	v_18	0.000000e+00
	v_17	0.000000e+00
	v_16	0.000000e+00
	v_15	0.000000e+00
	v_14	0.000000e+00
	v_13	0.000000e+00
	v_12	0.000000e+00
	v_11	0.000000e+00
	v_10	0.000000e+00
	v_9	0.000000e+00
	v_8	0.000000e+00
	v_7	0.000000e+00
	v_6	0.000000e+00
	v_5	0.000000e+00
	v_4	0.000000e+00
	v_3	0.000000e+00
	v_2	0.000000e+00
	v_1	5.000000e+00

	Source	Current
	------	-------

	v1#branch	-1.49155e-03
	v2#branch	2.773496e-04
	v3#branch	2.160192e-04
	v4#branch	1.693709e-04
	v5#branch	1.337667e-04
	v6#branch	1.064890e-04
	v7#branch	8.550431e-05
	v8#branch	6.928866e-05
	v9#branch	5.669781e-05
	v10#branch	4.687100e-05
	v11#branch	3.915931e-05
	v12#branch	3.307248e-05
	v13#branch	2.823916e-05
	v14#branch	2.437734e-05
	v15#branch	2.127226e-05
	v16#branch	1.875988e-05
	v17#branch	1.671452e-05
	v18#branch	1.503953e-05
	v19#branch	1.366038e-05
	v20#branch	1.251936e-05
	v21#branch	1.157165e-05
	v22#branch	1.078232e-05
	v23#branch	1.012405e-05
	v24#branch	9.575475e-06
	v25#branch	9.119800e-06
	v26#branch	8.743871e-06
	v27#branch	8.437402e-06
	v28#branch	8.192408e-06
	v29#branch	8.002777e-06
	v30#branch	7.863951e-06
	v31#branch	7.772696e-06
	v32#branch	7.726936e-06

 Resistor models (Simple linear resistor)
      model                     R

        rsh                     0
     narrow                     0
        tc1                     0
        tc2                     0
       defw                 1e-05

 Resistor: Simple linear resistor
     device                  r532                  r531                  r530
      model                     R                     R                     R
 resistance                 1e-09                 1e-09                 1e-09
          i           2.77556e-08           2.77556e-08           2.77556e-08
          p           7.70372e-25           7.70372e-25           7.70372e-25

 Resistor: Simple linear resistor
     device                  r529                  r528                  r527
      model                     R                     R                     R
 resistance                 1e-09                 1e-09                 1e-09
          i           2.77556e-08           2.77556e-08           2.77556e-08
          p           7.70372e-25           7.70372e-25           7.70372e-25

 Resistor: Simple linear resistor
     device                  r526                  r525                  r524
      model                     R                     R                     R
 resistance                 1e-09                 1e-09                 1e-09
          i           1.38778e-08           1.38778e-08           1.38778e-08
          p           1.92593e-25           1.92593e-25           1.92593e-25

 Resistor: Simple linear resistor
     device                  r523                  r522                  r521
      model                     R                     R                     R
 resistance                 1e-09                 1e-09                 1e-09
          i           1.38778e-08           1.38778e-08           1.38778e-08
          p           1.92593e-25           1.92593e-25           1.92593e-25

 Resistor: Simple linear resistor
     device                  r520                  r519                  r518
      model                     R                     R                     R
 resistance                 1e-09                 1e-09                 1e-09
          i           1.38778e-08           1.38778e-08           1.38778e-08
          p           1.92593e-25           1.92593e-25           1.92593e-25

 Resistor: Simple linear resistor
     device                  r517                  r516                  r515
      model                     R                     R                     R
 resistance                 1e-09                 1e-09                 1e-09
          i           1.38778e-08           1.38778e-08           1.38778e-08
          p           1.92593e-25           1.92593e-25           1.92593e-25

 Resistor: Simple linear resistor
     device                  r514                  r513                  r512
      model                     R                     R                     R
 resistance                 1e-09                 1e-09                 1e-09
          i           1.38778e-08           1.38778e-08           1.38778e-08
          p           1.92593e-25           1.92593e-25           1.92593e-25

 Resistor: Simple linear resistor
     device                  r511                  r510                   r59
      model                     R                     R                     R
 resistance                 1e-09                 1e-09                 1e-09
          i           1.38778e-08           1.38778e-08           6.93889e-09
          p           1.92593e-25           1.92593e-25           4.81482e-26

 Resistor: Simple linear resistor
     device                   r58                   r57                   r56
      model                     R                     R                     R
 resistance                 1e-09                 1e-09                 1e-09
          i           6.93889e-09           6.93889e-09           6.93889e-09
          p           4.81482e-26           4.81482e-26           4.81482e-26

 Resistor: Simple linear resistor
     device                   r55                   r54                   r53
      model                     R                     R                     R
 resistance                 1e-09                 1e-09                 1e-09
          i           6.93889e-09           3.46945e-09           3.46945e-09
          p           4.81482e-26           1.20371e-26           1.20371e-26

 Resistor: Simple linear resistor
     device                   r52                   r51                r32112
      model                     R                     R                     R
 resistance                 1e-09                 1e-09                  1000
          i           1.73472e-09           2.71051e-11           2.12636e-08
          p           3.00927e-27           7.34684e-31            4.5214e-13

 Resistor: Simple linear resistor
     device                r32047                r31983                r31920
      model                     R                     R                     R
 resistance                  1000                  1000                  1000
          i           2.12292e-08           2.11604e-08           2.10567e-08
          p           4.50681e-13           4.47762e-13           4.43383e-13

 Resistor: Simple linear resistor
     device                r31858                r31797                r31737
      model                     R                     R                     R
 resistance                  1000                  1000                  1000
          i           2.09176e-08           2.07425e-08           2.05305e-08
          p           4.37545e-13            4.3025e-13           4.21501e-13

 Resistor: Simple linear resistor
     device                r31678                r31620                r31563
      model                     R                     R                     R
 resistance                  1000                  1000                  1000
          i           2.02807e-08            1.9992e-08            1.9663e-08
          p           4.11307e-13           3.99679e-13           3.86635e-13

 Resistor: Simple linear resistor
     device                r31507                r31452                r31398
      model                     R                     R                     R
 resistance                  1000                  1000                  1000
          i           1.92926e-08           1.88791e-08            1.8421e-08
          p           3.72203e-13           3.56419e-13           3.39333e-13

 Resistor: Simple linear resistor
     device                r31345                r31293                r31242
      model                     R                     R                     R
 resistance                  1000                  1000                  1000
          i           1.79168e-08           1.73648e-08           1.67634e-08
          p           3.21012e-13           3.01537e-13           2.81012e-13

 Resistor: Simple linear resistor
     device                r31192                r31143                r31095
      model                     R                     R                     R
 resistance                  1000                  1000                  1000
          i           1.61111e-08           1.54063e-08           1.46478e-08
          p           2.59567e-13           2.37354e-13           2.14557e-13

 Resistor: Simple linear resistor
     device                r31048                r31002                 r3957
      model                     R                     R                     R
 resistance                  1000                  1000                  1000
          i           1.38343e-08           1.29651e-08           1.20397e-08
          p           1.91388e-13           1.68094e-13           1.44953e-13

 Resistor: Simple linear resistor
     device                 r3913                 r3870                 r3828
      model                     R                     R                     R
 resistance                  1000                  1000                  1000
          i           1.10579e-08           1.00202e-08           8.92782e-09
          p           1.22277e-13           1.00405e-13            7.9706e-14

 Resistor: Simple linear resistor
     device                 r3787                 r3747                 r3708
      model                     R                     R                     R
 resistance                  1000                  1000                  1000
          i           7.78244e-09           6.58679e-09            5.3445e-09
          p           6.05664e-14           4.33857e-14           2.85636e-14

 Resistor: Simple linear resistor
     device                 r3670                 r3633                 r3597
      model                     R                     R                     R
 resistance                  1000                  1000                  1000
          i           4.06031e-09           2.74015e-09           1.39127e-09
          p           1.64861e-14           7.50843e-15           1.93564e-15

 Resistor: Simple linear resistor
     device                 r3562                r32048                r31984
      model                     R                     R                     R
 resistance                  1000                  1000                  1000
          i            2.2305e-11           2.37526e-07           2.38415e-07
          p           4.97512e-19           5.64184e-11           5.68419e-11

 Resistor: Simple linear resistor
     device                r31921                r31859                r31798
      model                     R                     R                     R
 resistance                  1000                  1000                  1000
          i           2.40184e-07           2.42812e-07           2.46267e-07
          p           5.76886e-11           5.89578e-11           6.06475e-11

 Resistor: Simple linear resistor
     device                r31738                r31679                r31621
      model                     R                     R                     R
 resistance                  1000                  1000                  1000
          i           2.50505e-07            2.5547e-07           2.61091e-07
          p           6.27529e-11            6.5265e-11           6.81684e-11

 Resistor: Simple linear resistor
     device                r31564                r31508                r31453
      model                     R                     R                     R
 resistance                  1000                  1000                  1000
          i            2.6728e-07           2.73934e-07           2.80927e-07
          p           7.14387e-11           7.50398e-11           7.89202e-11

 Resistor: Simple linear resistor
     device                r31399                r31346                r31294
      model                     R                     R                     R
 resistance                  1000                  1000                  1000
          i           2.88114e-07           2.95324e-07            3.0236e-07
          p             8.301e-11           8.72165e-11           9.14217e-11

 Resistor: Simple linear resistor
     device                r31243                r31193                r31144
      model                     R                     R                     R
 resistance                  1000                  1000                  1000
          i           3.08996e-07           3.14975e-07           3.20007e-07
          p           9.54784e-11            9.9209e-11           1.02405e-10

 Resistor: Simple linear resistor
     device                r31096                r31049                r31003
      model                     R                     R                     R
 resistance                  1000                  1000                  1000
          i           3.23771e-07           3.25909e-07           3.26029e-07
          p           1.04828e-10           1.06216e-10           1.06295e-10

 Resistor: Simple linear resistor
     device                 r3958                 r3914                 r3871
      model                     R                     R                     R
 resistance                  1000                  1000                  1000
          i           3.23711e-07           3.18506e-07           3.09942e-07
          p           1.04789e-10           1.01446e-10            9.6064e-11

 Resistor: Simple linear resistor
     device                 r3829                 r3788                 r3748
      model                     R                     R                     R
 resistance                  1000                  1000                  1000
          i           2.97538e-07           2.80815e-07           2.59309e-07
          p           8.85291e-11           7.88568e-11           6.72411e-11

 Resistor: Simple linear resistor
     device                 r3709                 r3671                 r3634
      model                     R                     R                     R
 resistance                  1000                  1000                  1000
          i           2.32601e-07            2.0034e-07           1.62283e-07
          p           5.41031e-11           4.01361e-11           2.63357e-11

 Resistor: Simple linear resistor
     device                 r3598                 r3563                 r3529
      model                     R                     R                     R
 resistance                  1000                  1000                  1000
          i           1.18334e-07           6.86041e-08           1.34662e-08
          p            1.4003e-11           4.70653e-12           1.81338e-13

 Resistor: Simple linear resistor
     device                r31985                r31922                r31860
      model                     R                     R                     R
 resistance                  1000                  1000                  1000
          i           4.53023e-07           4.54849e-07           4.58482e-07
          p            2.0523e-10           2.06888e-10           2.10206e-10

 Resistor: Simple linear resistor
     device                r31799                r31739                r31680
      model                     R                     R                     R
 resistance                  1000                  1000                  1000
          i            4.6388e-07           4.70981e-07           4.79699e-07
          p           2.15184e-10           2.21823e-10           2.30111e-10

 Resistor: Simple linear resistor
     device                r31622                r31565                r31509
      model                     R                     R                     R
 resistance                  1000                  1000                  1000
          i           4.89924e-07           5.01515e-07             5.143e-07
          p           2.40025e-10           2.51517e-10           2.64505e-10

 Resistor: Simple linear resistor
     device                r31454                r31400                r31347
      model                     R                     R                     R
 resistance                  1000                  1000                  1000
          i           5.28074e-07           5.42591e-07           5.57559e-07
          p           2.78863e-10           2.94405e-10           3.10872e-10

 Resistor: Simple linear resistor
     device                r31295                r31244                r31194
      model                     R                     R                     R
 resistance                  1000                  1000                  1000
          i           5.72641e-07           5.87445e-07            6.0152e-07
          p           3.27918e-10           3.45091e-10           3.61826e-10

 Resistor: Simple linear resistor
     device                r31145                r31097                r31050
      model                     R                     R                     R
 resistance                  1000                  1000                  1000
          i           6.14354e-07            6.2537e-07            6.3392e-07
          p           3.77431e-10           3.91088e-10           4.01854e-10

 Resistor: Simple linear resistor
     device                r31004                 r3959                 r3915
      model                     R                     R                     R
 resistance                  1000                  1000                  1000
          i           6.39287e-07           6.40685e-07           6.37264e-07
          p           4.08687e-10           4.10477e-10           4.06105e-10

 Resistor: Simple linear resistor
     device                 r3872                 r3830                 r3789
      model                     R                     R                     R
 resistance                  1000                  1000                  1000
          i           6.28115e-07           6.12285e-07           5.88794e-07
          p           3.94529e-10           3.74893e-10           3.46678e-10

 Resistor: Simple linear resistor
     device                 r3749                 r3710                 r3672
      model                     R                     R                     R
 resistance                  1000                  1000                  1000
          i           5.56658e-07           5.14929e-07           4.62735e-07
          p           3.09869e-10           2.65152e-10           2.14124e-10

 Resistor: Simple linear resistor
     device                 r3635                 r3599                 r3564
      model                     R                     R                     R
 resistance                  1000                  1000                  1000
          i           3.99339e-07           3.24212e-07           2.37121e-07
          p           1.59472e-10           1.05114e-10           5.62265e-11

 Resistor: Simple linear resistor
     device                 r3530                 r3497                r31923
      model                     R                     R                     R
 resistance                  1000                  1000                  1000
          i           1.38236e-07           2.82567e-08           6.66942e-07
          p           1.91092e-11            7.9844e-13           4.44811e-10

 Resistor: Simple linear resistor
     device                r31861                r31800                r31740
      model                     R                     R                     R
 resistance                  1000                  1000                  1000
          i           6.69729e-07           6.75275e-07           6.83519e-07
          p           4.48537e-10           4.55996e-10           4.67198e-10

 Resistor: Simple linear resistor
     device                r31681                r31623                r31566
      model                     R                     R                     R
 resistance                  1000                  1000                  1000
          i            6.9437e-07           7.07701e-07            7.2335e-07
          p           4.82149e-10           5.00841e-10           5.23235e-10

 Resistor: Simple linear resistor
     device                r31510                r31455                r31401
      model                     R                     R                     R
 resistance                  1000                  1000                  1000
          i           7.41109e-07           7.60725e-07           7.81894e-07
          p           5.49242e-10           5.78703e-10           6.11357e-10

 Resistor: Simple linear resistor
     device                r31348                r31296                r31245
      model                     R                     R                     R
 resistance                  1000                  1000                  1000
          i           8.04248e-07           8.27359e-07            8.5072e-07
          p           6.46815e-10           6.84522e-10           7.23725e-10

 Resistor: Simple linear resistor
     device                r31195                r31146                r31098
      model                     R                     R                     R
 resistance                  1000                  1000                  1000
          i           8.73748e-07           8.95767e-07           9.16011e-07
          p           7.63435e-10           8.02399e-10           8.39077e-10

 Resistor: Simple linear resistor
     device                r31051                r31005                 r3960
      model                     R                     R                     R
 resistance                  1000                  1000                  1000
          i           9.33609e-07           9.47585e-07           9.56855e-07
          p           8.71626e-10           8.97917e-10           9.15571e-10

 Resistor: Simple linear resistor
     device                 r3916                 r3873                 r3831
      model                     R                     R                     R
 resistance                  1000                  1000                  1000
          i           9.60226e-07           9.56404e-07           9.44001e-07
          p           9.22034e-10           9.14709e-10           8.91137e-10

 Resistor: Simple linear resistor
     device                 r3790                 r3750                 r3711
      model                     R                     R                     R
 resistance                  1000                  1000                  1000
          i           9.21553e-07           8.87547e-07            8.4046e-07
          p            8.4926e-10            7.8774e-10           7.06372e-10

 Resistor: Simple linear resistor
     device                 r3673                 r3636                 r3600
      model                     R                     R                     R
 resistance                  1000                  1000                  1000
          i           7.78803e-07           7.01197e-07           6.06453e-07
          p           6.06534e-10           4.91678e-10           3.67786e-10

 Resistor: Simple linear resistor
     device                 r3565                 r3531                 r3498
      model                     R                     R                     R
 resistance                  1000                  1000                  1000
          i           4.93683e-07           3.62432e-07           2.12849e-07
          p           2.43722e-10           1.31357e-10           4.53045e-11

 Resistor: Simple linear resistor
     device                 r3466                r31862                r31801
      model                     R                     R                     R
 resistance                  1000                  1000                  1000
          i           4.58729e-08           8.78439e-07           8.82224e-07
          p           2.10432e-12           7.71655e-10            7.7832e-10

 Resistor: Simple linear resistor
     device                r31741                r31682                r31624
      model                     R                     R                     R
 resistance                  1000                  1000                  1000
          i           8.89757e-07            9.0096e-07           9.15714e-07
          p           7.91667e-10           8.11728e-10           8.38532e-10

 Resistor: Simple linear resistor
     device                r31567                r31511                r31456
      model                     R                     R                     R
 resistance                  1000                  1000                  1000
          i           9.33856e-07           9.55172e-07           9.79395e-07
          p           8.72087e-10           9.12354e-10           9.59214e-10

 Resistor: Simple linear resistor
     device                r31402                r31349                r31297
      model                     R                     R                     R
 resistance                  1000                  1000                  1000
          i           1.00619e-06           1.03516e-06           1.06583e-06
[...]
          p           2.25625e-09           1.10682e-10           2.29627e-09

 Resistor: Simple linear resistor
     device                 r1101                  r187                  r174
      model                     R                     R                     R
 resistance                 10000                 10000                 10000
          i          -1.36947e-06           -2.6921e-06          -4.62176e-06
          p           1.87545e-08            7.2474e-08           2.13607e-07

 Resistor: Simple linear resistor
     device                  r162                  r151                  r141
      model                     R                     R                     R
 resistance                 10000                 10000                 10000
          i          -7.39905e-06          -1.13546e-05          -1.69418e-05
          p            5.4746e-07           1.28927e-06           2.87025e-06

 Resistor: Simple linear resistor
     device                  r132                  r124                  r117
      model                     R                     R                     R
 resistance                 10000                 10000                 10000
          i          -2.47813e-05          -3.57212e-05           -5.0919e-05
          p           6.14113e-06             1.276e-05           2.59274e-05

 Resistor: Simple linear resistor
     device                  r111                 r1627                 r1592
      model                     R                     R                     R
 resistance                 10000                 10000                 10000
          i          -7.19523e-05           4.10071e-07           4.16369e-07
          p           5.17714e-05           1.68158e-09           1.73363e-09

 Resistor: Simple linear resistor
     device                 r1558                 r1525                 r1493
      model                     R                     R                     R
 resistance                 10000                 10000                 10000
          i           4.29061e-07           4.48334e-07           4.74457e-07
          p           1.84093e-09           2.01004e-09           2.25109e-09

 Resistor: Simple linear resistor
     device                 r1462                 r1432                 r1403
      model                     R                     R                     R
 resistance                 10000                 10000                 10000
          i           5.07763e-07           5.48621e-07           5.97394e-07
          p           2.57823e-09           3.00985e-09           3.56879e-09

 Resistor: Simple linear resistor
     device                 r1375                 r1348                 r1322
      model                     R                     R                     R
 resistance                 10000                 10000                 10000
          i           6.54368e-07           7.19654e-07            7.9303e-07
          p           4.28198e-09           5.17902e-09           6.28896e-09

 Resistor: Simple linear resistor
     device                 r1297                 r1273                 r1250
      model                     R                     R                     R
 resistance                 10000                 10000                 10000
          i            8.7372e-07           9.60067e-07           1.04906e-06
          p           7.63387e-09           9.21729e-09           1.10052e-08

 Resistor: Simple linear resistor
     device                 r1228                 r1207                 r1187
      model                     R                     R                     R
 resistance                 10000                 10000                 10000
          i           1.13563e-06           1.21172e-06           1.26488e-06
          p           1.28965e-08           1.46828e-08           1.59992e-08

 Resistor: Simple linear resistor
     device                 r1168                 r1150                 r1133
      model                     R                     R                     R
 resistance                 10000                 10000                 10000
          i           1.27628e-06             1.218e-06           1.04914e-06
          p           1.62888e-08           1.48352e-08            1.1007e-08

 Resistor: Simple linear resistor
     device                 r1117                 r1102                  r188
      model                     R                     R                     R
 resistance                 10000                 10000                 10000
          i           7.10387e-07           1.16437e-07          -8.54575e-07
          p            5.0465e-09           1.35575e-10           7.30298e-09

 Resistor: Simple linear resistor
     device                  r175                  r163                  r152
      model                     R                     R                     R
 resistance                 10000                 10000                 10000
          i          -2.37578e-06          -4.69201e-06          -8.14815e-06
          p           5.64432e-08           2.20149e-07           6.63923e-07

 Resistor: Simple linear resistor
     device                  r142                  r133                  r125
      model                     R                     R                     R
 resistance                 10000                 10000                 10000
          i          -1.32284e-05          -2.06105e-05          -3.12411e-05
          p            1.7499e-06           4.24794e-06           9.76009e-06

 Resistor: Simple linear resistor
     device                  r118                  r112                   r17
      model                     R                     R                     R
 resistance                 10000                 10000                 10000
          i           -4.6439e-05          -6.80384e-05          -9.85859e-05
          p           2.15658e-05           4.62923e-05           9.71918e-05

 Resistor: Simple linear resistor
     device                 r1593                 r1559                 r1526
      model                     R                     R                     R
 resistance                 10000                 10000                 10000
          i           4.86812e-07           4.99514e-07           5.25587e-07
          p           2.36986e-09           2.49514e-09           2.76242e-09

 Resistor: Simple linear resistor
     device                 r1494                 r1463                 r1433
      model                     R                     R                     R
 resistance                 10000                 10000                 10000
          i           5.66419e-07           6.24212e-07           7.02149e-07
          p            3.2083e-09            3.8964e-09           4.93013e-09

 Resistor: Simple linear resistor
     device                 r1404                 r1376                 r1349
      model                     R                     R                     R
 resistance                 10000                 10000                 10000
          i           8.04623e-07           9.37566e-07           1.10889e-06
          p           6.47418e-09            8.7903e-09           1.22964e-08

 Resistor: Simple linear resistor
     device                 r1323                 r1298                 r1274
      model                     R                     R                     R
 resistance                 10000                 10000                 10000
          i           1.32909e-06           1.61205e-06           1.97611e-06
          p           1.76648e-08           2.59869e-08             3.905e-08

 Resistor: Simple linear resistor
     device                 r1251                 r1229                 r1208
      model                     R                     R                     R
 resistance                 10000                 10000                 10000
          i           2.44553e-06           3.05239e-06           3.83919e-06
          p           5.98061e-08           9.31711e-08           1.47394e-07

 Resistor: Simple linear resistor
     device                 r1188                 r1169                 r1151
      model                     R                     R                     R
 resistance                 10000                 10000                 10000
          i           4.86223e-06           6.19628e-06           7.94068e-06
          p           2.36413e-07           3.83939e-07           6.30545e-07

 Resistor: Simple linear resistor
     device                 r1134                 r1118                 r1103
      model                     R                     R                     R
 resistance                 10000                 10000                 10000
          i           1.02276e-05            1.3233e-05           1.71917e-05
          p           1.04604e-06           1.75113e-06           2.95553e-06

 Resistor: Simple linear resistor
     device                  r189                  r176                  r164
      model                     R                     R                     R
 resistance                 10000                 10000                 10000
          i           2.24166e-05            2.9326e-05           3.84789e-05
          p           5.02503e-06           8.60014e-06           1.48063e-05

 Resistor: Simple linear resistor
     device                  r153                  r143                  r134
      model                     R                     R                     R
 resistance                 10000                 10000                 10000
          i           5.06232e-05           6.67598e-05           8.82298e-05
          p           2.56271e-05           4.45687e-05            7.7845e-05

 Resistor: Simple linear resistor
     device                  r126                  r119                  r113
      model                     R                     R                     R
 resistance                 10000                 10000                 10000
          i           0.000116831           0.000154973           0.000205892
          p           0.000136494           0.000240166           0.000423914

 Resistor: Simple linear resistor
     device                   r18                   r14                  r432
      model                     R                     R                     R
 resistance                 10000                 10000                 1e-09
          i            0.00027393           0.000364922          -7.72694e-06
          p           0.000750377            0.00133168           5.97055e-20

 Resistor: Simple linear resistor
     device                  r431                  r430                  r429
      model                     R                     R                     R
 resistance                 1e-09                 1e-09                 1e-09
          i           -7.7727e-06          -7.86395e-06          -8.00278e-06
          p           6.04148e-20           6.18417e-20           6.40444e-20

 Resistor: Simple linear resistor
     device                  r428                  r427                  r426
      model                     R                     R                     R
 resistance                 1e-09                 1e-09                 1e-09
          i          -8.19241e-06           -8.4374e-06          -8.74387e-06
          p           6.71155e-20           7.11897e-20           7.64553e-20

 Resistor: Simple linear resistor
     device                  r425                  r424                  r423
      model                     R                     R                     R
 resistance                 1e-09                 1e-09                 1e-09
          i           -9.1198e-06          -9.57547e-06          -1.01241e-05
          p           8.31707e-20           9.16897e-20           1.02496e-19

 Resistor: Simple linear resistor
     device                  r422                  r421                  r420
      model                     R                     R                     R
 resistance                 1e-09                 1e-09                 1e-09
          i          -1.07823e-05          -1.15717e-05          -1.25194e-05
          p           1.16258e-19           1.33903e-19           1.56734e-19

 Resistor: Simple linear resistor
     device                  r419                  r418                  r417
      model                     R                     R                     R
 resistance                 1e-09                 1e-09                 1e-09
          i          -1.36604e-05          -1.50395e-05          -1.67145e-05
          p           1.86606e-19           2.26188e-19           2.79375e-19

 Resistor: Simple linear resistor
     device                  r416                  r415                  r414
      model                     R                     R                     R
 resistance                 1e-09                 1e-09                 1e-09
          i          -1.87599e-05          -2.12723e-05          -2.43773e-05
          p           3.51933e-19           4.52509e-19           5.94255e-19

 Resistor: Simple linear resistor
     device                  r413                  r412                  r411
      model                     R                     R                     R
 resistance                 1e-09                 1e-09                 1e-09
          i          -2.82392e-05          -3.30725e-05          -3.91593e-05
          p            7.9745e-19           1.09379e-18           1.53345e-18

 Resistor: Simple linear resistor
     device                  r410                   r49                   r48
      model                     R                     R                     R
 resistance                 1e-09                 1e-09                 1e-09
          i           -4.6871e-05          -5.66978e-05          -6.92887e-05
          p           2.19689e-18           3.21464e-18           4.80092e-18

 Resistor: Simple linear resistor
     device                   r47                   r46                   r45
      model                     R                     R                     R
 resistance                 1e-09                 1e-09                 1e-09
          i          -8.55043e-05          -0.000106489          -0.000133767
          p           7.31099e-18           1.13399e-17           1.78935e-17

 Resistor: Simple linear resistor
     device                   r44                   r43                   r42
      model                     R                     R                     R
 resistance                 1e-09                 1e-09                 1e-09
          i          -0.000169371          -0.000216019           -0.00027735
          p           2.86865e-17           4.66643e-17           7.69228e-17

 Resistor: Simple linear resistor
     device                   r41
      model                     R
 resistance                 1e-09
          i            0.00149214
          p           2.22648e-15

 Vsource: Independent voltage source
     device                   v32                   v31                   v30
         dc                     0                     0                     0
      acmag                     0                     0                     0
          i           7.72694e-06            7.7727e-06           7.86395e-06
          p                     0                     0                     0

 Vsource: Independent voltage source
     device                   v29                   v28                   v27
         dc                     0                     0                     0
      acmag                     0                     0                     0
          i           8.00278e-06           8.19241e-06            8.4374e-06
          p                     0                     0                     0

 Vsource: Independent voltage source
     device                   v26                   v25                   v24
         dc                     0                     0                     0
      acmag                     0                     0                     0
          i           8.74387e-06            9.1198e-06           9.57547e-06
          p                     0                     0                     0

 Vsource: Independent voltage source
     device                   v23                   v22                   v21
         dc                     0                     0                     0
      acmag                     0                     0                     0
          i           1.01241e-05           1.07823e-05           1.15717e-05
          p                     0                     0                     0

 Vsource: Independent voltage source
     device                   v20                   v19                   v18
         dc                     0                     0                     0
      acmag                     0                     0                     0
          i           1.25194e-05           1.36604e-05           1.50395e-05
          p                     0                     0                     0

 Vsource: Independent voltage source
     device                   v17                   v16                   v15
         dc                     0                     0                     0
      acmag                     0                     0                     0
          i           1.67145e-05           1.87599e-05           2.12723e-05
          p                     0                     0                     0

 Vsource: Independent voltage source
     device                   v14                   v13                   v12
         dc                     0                     0                     0
      acmag                     0                     0                     0
          i           2.43773e-05           2.82392e-05           3.30725e-05
          p                     0                     0                     0

 Vsource: Independent voltage source
     device                   v11                   v10                    v9
         dc                     0                     0                     0
      acmag                     0                     0                     0
          i           3.91593e-05            4.6871e-05           5.66978e-05
          p                     0                     0                     0

 Vsource: Independent voltage source
     device                    v8                    v7                    v6
         dc                     0                     0                     0
      acmag                     0                     0                     0
          i           6.92887e-05           8.55043e-05           0.000106489
          p                     0                     0                     0

 Vsource: Independent voltage source
     device                    v5                    v4                    v3
         dc                     0                     0                     0
      acmag                     0                     0                     0
          i           0.000133767           0.000169371           0.000216019
          p                     0                     0                     0

 Vsource: Independent voltage source
     device                    v2                    v1
         dc                     0                     5
      acmag                     0                     0
          i            0.00027735           -0.00149155
          p                     0           -0.00745773

CPU time since last call: 0.219 seconds.

Total CPU time: 0.219 seconds.

MacSpice memory reserved: 37748736,
MacSpice memory peak use:  6864528,
MacSpice memory in use:    6578256.

