
Circuit: *mat_array.cir


Circuit: *mat_array.cir
Date: Mon Feb 18 23:10:18  2019


Operating point information:

	Node	Voltage
	----	-------
	memrcol5150	7.331762e-14
	memrcol5149	7.341782e-14
	memrcol5148	7.361984e-14
	memrcol5147	7.392497e-14
	memrcol5146	7.433554e-14
	memrcol5145	7.485466e-14
	memrcol5144	7.548626e-14
	memrcol5143	7.623511e-14
	memrcol5142	7.710684e-14
	memrcol5141	7.810807e-14
	memrcol5140	7.924675e-14
	memrcol5139	8.053045e-14
	memrcol5138	8.197040e-14
	memrcol5137	8.357770e-14
	memrcol5136	8.536525e-14
	memrcol5135	8.734766e-14
	memrcol5134	8.954142e-14
	memrcol5133	9.196522e-14
	memrcol5132	9.464020e-14
	memrcol5131	9.759040e-14
	memrcol5130	1.008435e-13
	memrcol5129	1.044296e-13
	memrcol5128	1.083858e-13
	memrcol5127	1.127532e-13
	memrcol5126	1.175798e-13
	memrcol5125	1.229210e-13
	memrcol5124	1.288421e-13
	memrcol5123	1.354194e-13
	memrcol5122	1.427433e-13
	memrcol5121	1.509210e-13
	memrcol5120	1.600814e-13
	memrcol5119	1.703770e-13
	memrcol5118	1.819974e-13
	memrcol5117	1.951690e-13
	memrcol5116	2.101698e-13
	memrcol5115	2.273420e-13
	memrcol5114	2.471086e-13
	memrcol5113	2.699956e-13
	memrcol5112	2.966601e-13
	memrcol5111	3.279265e-13
	memrcol5110	3.648348e-13
	memrrow5051	7.441142e-02
	memrrow4951	1.487008e-01
	memrrow4851	2.227525e-01
	memrrow4751	2.964515e-01
	memrrow4651	3.696865e-01
	memrrow4551	4.423504e-01
	memrrow4451	5.143412e-01
	memrrow4351	5.855628e-01
	memrrow4251	6.559255e-01
	memrrow4151	7.253466e-01
	memrrow4051	7.937507e-01
	memrrow3951	8.610703e-01
	memrrow3851	9.272458e-01
	memrrow3751	9.922263e-01
	memrrow3651	1.055969e+00
	memrrow3551	1.118441e+00
	memrrow3451	1.179618e+00
	memrrow3351	1.239483e+00
	memrrow3251	1.298032e+00
	memrrow3151	1.355267e+00
	memrrow3051	1.411201e+00
	memrrow2951	1.465859e+00
	memrrow2851	1.519271e+00
	memrrow2751	1.571482e+00
	memrrow2651	1.622545e+00
	memrrow2551	1.672525e+00
	memrrow2451	1.721499e+00
	memrrow2351	1.769555e+00
	memrrow2251	1.816795e+00
	memrrow2151	1.863336e+00
	memrrow2051	1.909309e+00
	memrrow1951	1.954866e+00
	memrrow1851	2.000178e+00
	memrrow1751	2.045441e+00
	memrrow1651	2.090881e+00
	memrrow1551	2.136758e+00
	memrrow1451	2.183380e+00
	memrrow1351	2.231106e+00
	memrrow1251	2.280367e+00
	memrrow1151	2.331685e+00
	memrrow1051	2.385697e+00
	memrrow951	2.443187e+00
	memrrow851	2.505138e+00
	memrrow751	2.572787e+00
	memrrow651	2.647704e+00
	memrrow551	2.731903e+00
	memrcol5050	7.331762e-02
	memrrow5050	7.441142e-02
	memrcol5049	7.341782e-02
	memrrow5049	7.452080e-02
	memrcol5048	7.361984e-02
	memrrow5048	7.474048e-02
	memrcol5047	7.392497e-02
	memrrow5047	7.507223e-02
	memrcol5046	7.433554e-02
	memrrow5046	7.551869e-02
	memrcol5045	7.485466e-02
	memrrow5045	7.608348e-02
	memrcol5044	7.548626e-02
	memrrow5044	7.677114e-02
	memrcol5043	7.623511e-02
	memrrow5043	7.758730e-02
	memrcol5042	7.710684e-02
	memrrow5042	7.853867e-02
	memrcol5041	7.810807e-02
	memrrow5041	7.963323e-02
	memrcol5040	7.924675e-02
	memrrow5040	8.088030e-02
	memrcol5039	8.053045e-02
	memrrow5039	8.229073e-02
	memrcol5038	8.197040e-02
	memrrow5038	8.387718e-02
	memrcol5037	8.357770e-02
	memrrow5037	8.565432e-02
	memrcol5036	8.536525e-02
	memrrow5036	8.763911e-02
	memrcol5035	8.734766e-02
	memrrow5035	8.985129e-02
	memrcol5034	8.954142e-02
	memrrow5034	9.231383e-02
	memrcol5033	9.196522e-02
	memrrow5033	9.505362e-02
	memrcol5032	9.464020e-02
	memrrow5032	9.810224e-02
	memrcol5031	9.759040e-02
	memrrow5031	1.014971e-01
	memrcol5030	1.008435e-01
	memrrow5030	1.052826e-01
	memrcol5029	1.044296e-01
	memrrow5029	1.095120e-01
	memrcol5028	1.083858e-01
	memrrow5028	1.142496e-01
	memrcol5027	1.127532e-01
	memrrow5027	1.195736e-01
	memrcol5026	1.175798e-01
	memrrow5026	1.255797e-01
	memrcol5025	1.229210e-01
	memrrow5025	1.323857e-01
	memrcol5024	1.288421e-01
	memrrow5024	1.401383e-01
	memrcol5023	1.354194e-01
	memrrow5023	1.490204e-01
	memrcol5022	1.427433e-01
	memrrow5022	1.592626e-01
	memrcol5021	1.509210e-01
	memrrow5021	1.711568e-01
	memrcol5020	1.600814e-01
	memrrow5020	1.850745e-01
	memrcol5019	1.703770e-01
	memrrow5019	2.014916e-01
	memrcol5018	1.819974e-01
	memrrow5018	2.210201e-01
	memrcol5017	1.951690e-01
	memrrow5017	2.444509e-01
	memrcol5016	2.101698e-01
	memrrow5016	2.728099e-01
	memrcol5015	2.273420e-01
	memrrow5015	3.074328e-01
	memrcol5014	2.471086e-01
	memrrow5014	3.500649e-01
	memrcol5013	2.699956e-01
	memrrow5013	4.029926e-01
	memrcol5012	2.966601e-01
	memrrow5012	4.692200e-01
	memrcol5011	3.279265e-01
	memrrow5011	5.527034e-01
	memrcol5010	3.648348e-01
	memrrow5010	6.586645e-01
	memrcol509	4.086966e-01
	memrrow509	7.940086e-01
	memrcol508	4.611824e-01
	memrrow508	9.678839e-01
	memrcol507	5.244196e-01
	memrrow507	1.192429e+00
	memrcol506	6.011284e-01
	memrrow506	1.483776e+00
	memrcol505	6.947973e-01
	memrrow505	1.863387e+00
	memrcol504	8.099127e-01
	memrrow504	2.359857e+00
	memrcol503	9.522600e-01
	memrrow503	3.011321e+00
	memrcol502	1.129319e+00
	memrrow502	3.868692e+00
	memrcol501	1.350781e+00
	memrcol4950	1.465259e-01
	memrrow4950	1.487008e-01
	memrcol4949	1.467253e-01
	memrrow4949	1.489183e-01
	memrcol4948	1.471276e-01
	memrrow4948	1.493551e-01
	memrcol4947	1.477352e-01
	memrrow4947	1.500147e-01
	memrcol4946	1.485528e-01
	memrrow4946	1.509022e-01
	memrcol4945	1.495864e-01
	memrrow4945	1.520246e-01
	memrcol4944	1.508440e-01
	memrrow4944	1.533909e-01
	memrcol4943	1.523350e-01
	memrrow4943	1.550118e-01
	memrcol4942	1.540705e-01
	memrrow4942	1.569004e-01
	memrcol4941	1.560636e-01
	memrrow4941	1.590720e-01
	memrcol4940	1.583301e-01
	memrrow4940	1.615445e-01
	memrcol4939	1.608849e-01
	memrrow4939	1.643384e-01
	memrcol4938	1.637501e-01
	memrrow4938	1.674776e-01
	memrcol4937	1.669477e-01
	memrrow4937	1.709896e-01
	memrcol4936	1.705031e-01
	memrrow4936	1.749057e-01
	memrcol4935	1.744450e-01
	memrrow4935	1.792621e-01
	memrcol4934	1.788056e-01
	memrrow4934	1.841003e-01
	memrcol4933	1.836216e-01
	memrrow4933	1.894679e-01
	memrcol4932	1.889342e-01
	memrrow4932	1.954201e-01
	memrcol4931	1.947901e-01
	memrrow4931	2.020209e-01
	memrcol4930	2.012431e-01
	memrrow4930	2.093449e-01
	memrcol4929	2.083510e-01
	memrrow4929	2.174789e-01
	memrcol4928	2.161853e-01
	memrrow4928	2.265258e-01
	memrcol4927	2.248244e-01
	memrrow4927	2.366067e-01
	memrcol4926	2.343595e-01
	memrrow4926	2.478659e-01
	memrcol4925	2.448956e-01
	memrrow4925	2.604757e-01
	memrcol4924	2.565546e-01
	memrrow4924	2.746435e-01
	memrcol4923	2.694787e-01
	memrrow4923	2.906202e-01
	memrcol4922	2.838346e-01
	memrrow4922	3.087110e-01
	memrcol4921	2.998184e-01
	memrrow4921	3.292895e-01
	memrcol4920	3.176636e-01
	memrrow4920	3.528151e-01
	memrcol4919	3.376425e-01
	memrrow4919	3.798558e-01
	memrcol4918	3.600925e-01
	memrrow4918	4.111179e-01
	memrcol4917	3.854097e-01
	memrrow4917	4.474825e-01
	memrcol4916	4.140756e-01
	memrrow4916	4.900544e-01
	memrcol4915	4.466749e-01
	memrrow4915	5.402242e-01
	memrcol4914	4.839215e-01
	memrrow4914	5.997489e-01
	memrcol4913	5.266915e-01
	memrrow4913	6.708563e-01
	memrcol4912	5.760642e-01
	memrrow4912	7.563803e-01
	memrcol4911	6.333752e-01
	memrrow4911	8.599358e-01
	memrcol4910	7.002867e-01
	memrrow4910	9.861474e-01
	memrcol499	7.788621e-01
	memrrow499	1.140945e+00
	memrcol498	8.716946e-01
	memrrow498	1.331951e+00
	memrcol497	9.820382e-01
	memrrow497	1.568983e+00
	memrcol496	1.113992e+00
	memrrow496	1.864709e+00
	memrcol495	1.272736e+00
	memrrow495	2.235506e+00
	memrcol494	1.464831e+00
	memrrow494	2.702581e+00
	memrcol493	1.698614e+00
	memrrow493	3.293431e+00
	memrcol492	1.984700e+00
	memrrow492	4.043762e+00
	memrcol491	2.336640e+00
	memrcol4850	2.195166e-01
	memrrow4850	2.227525e-01
	memrcol4849	2.198136e-01
	memrrow4849	2.230761e-01
	memrcol4848	2.204126e-01
	memrrow4848	2.237259e-01
	memrcol4847	2.213175e-01
	memrrow4847	2.247071e-01
	memrcol4846	2.225350e-01
	memrrow4846	2.260273e-01
	memrcol4845	2.240744e-01
	memrrow4845	2.276966e-01
	memrcol4844	2.259471e-01
	memrrow4844	2.297282e-01
	memrcol4843	2.281672e-01
	memrrow4843	2.321379e-01
	memrcol4842	2.307512e-01
	memrrow4842	2.349446e-01
	memrcol4841	2.337183e-01
	memrrow4841	2.381707e-01
	memrcol4840	2.370921e-01
	memrrow4840	2.418421e-01
	memrcol4839	2.408939e-01
	memrrow4839	2.459884e-01
	memrcol4838	2.451571e-01
	memrrow4838	2.506442e-01
	memrcol4837	2.499136e-01
	memrrow4837	2.558486e-01
	memrcol4836	2.552007e-01
	memrrow4836	2.616466e-01
	memrcol4835	2.610605e-01
	memrrow4835	2.680892e-01
	memrcol4834	2.675403e-01
	memrrow4834	2.752346e-01
	memrcol4833	2.746933e-01
	memrrow4833	2.831495e-01
	memrcol4832	2.825796e-01
	memrrow4832	2.919100e-01
	memrcol4831	2.912668e-01
	memrrow4831	3.016035e-01
	memrcol4830	3.008326e-01
	memrrow4830	3.123307e-01
	memrcol4829	3.113595e-01
	memrrow4829	3.242076e-01
	memrcol4828	3.229506e-01
	memrrow4828	3.373694e-01
	memrcol4827	3.357174e-01
	memrrow4827	3.519731e-01
	memrcol4826	3.497887e-01
	memrrow4826	3.682024e-01
	memrcol4825	3.653122e-01
	memrrow4825	3.862730e-01
	memrcol4824	3.824582e-01
	memrrow4824	4.064397e-01
	memrcol4823	4.014239e-01
	memrrow4823	4.290045e-01
	memrcol4822	4.224383e-01
	memrrow4822	4.543275e-01
	memrcol4821	4.457688e-01
	memrrow4821	4.828393e-01
	memrcol4820	4.717306e-01
	memrrow4820	5.150582e-01
	memrcol4819	5.006867e-01
	memrrow4819	5.516098e-01
	memrcol4818	5.330850e-01
	memrrow4818	5.932538e-01
	memrcol4817	5.694432e-01
	memrrow4817	6.409146e-01
	memrcol4816	6.103835e-01
	memrrow4816	6.957226e-01
	memrcol4815	6.566528e-01
	memrrow4815	7.590645e-01
	memrcol4814	7.091518e-01
	memrrow4814	8.326476e-01
	memrcol4813	7.689709e-01
	memrrow4813	9.185802e-01
	memrcol4812	8.374366e-01
	memrrow4812	1.019474e+00
	memrcol4811	9.161679e-01
	memrrow4811	1.138571e+00
	memrcol4810	1.007152e+00
	memrrow4810	1.279909e+00
	memrcol489	1.112819e+00
	memrrow489	1.448522e+00
	memrcol488	1.236181e+00
	memrrow488	1.650705e+00
	memrcol487	1.380962e+00
	memrrow487	1.894341e+00
	memrcol486	1.551784e+00
	memrrow486	2.189315e+00
	memrcol485	1.754397e+00
	memrrow485	2.548042e+00
	memrcol484	1.995974e+00
	memrrow484	2.986133e+00
	memrcol483	2.285486e+00
	memrrow483	3.523240e+00
	memrcol482	2.634175e+00
	memrrow482	4.184123e+00
	memrcol481	3.056163e+00
	memrcol4750	2.921838e-01
	memrrow4750	2.964515e-01
	memrcol4749	2.925755e-01
	memrrow4749	2.968783e-01
	memrcol4748	2.933663e-01
	memrrow4748	2.977354e-01
	memrcol4747	2.945608e-01
	memrrow4747	2.990293e-01
	memrcol4746	2.961681e-01
	memrrow4746	3.007701e-01
	memrcol4745	2.982002e-01
	memrrow4745	3.029712e-01
	memrcol4744	3.006721e-01
	memrrow4744	3.056493e-01
	memrcol4743	3.036023e-01
	memrrow4743	3.088251e-01
	memrcol4742	3.070125e-01
	memrrow4742	3.125232e-01
	memrcol4741	3.109278e-01
	memrrow4741	3.167724e-01
	memrcol4740	3.153791e-01
	memrrow4740	3.216060e-01
	memrcol4739	3.203936e-01
	memrrow4739	3.270623e-01
	memrcol4738	3.260154e-01
	memrrow4738	3.331856e-01
	memrcol4737	3.322859e-01
	memrrow4737	3.400258e-01
	memrcol4736	3.392537e-01
	memrrow4736	3.476400e-01
	memrcol4735	3.469732e-01
	memrrow4735	3.560928e-01
	memrcol4734	3.555056e-01
	memrrow4734	3.654576e-01
	memrcol4733	3.649195e-01
	memrrow4733	3.758176e-01
	memrcol4732	3.752920e-01
	memrrow4732	3.872674e-01
	memrcol4731	3.867098e-01
	memrrow4731	3.999147e-01
	memrcol4730	3.992722e-01
	memrrow4730	4.138826e-01
	memrcol4729	4.130833e-01
	memrrow4729	4.293114e-01
	memrcol4728	4.282741e-01
	memrrow4728	4.463631e-01
	memrcol4727	4.449848e-01
	memrrow4727	4.652237e-01
	memrcol4726	4.633764e-01
	memrrow4726	4.861082e-01
	memrcol4725	4.836326e-01
	memrrow4725	5.092658e-01
	memrcol4724	5.059637e-01
	memrrow4724	5.349868e-01
	memrcol4723	5.306110e-01
	memrrow4723	5.636101e-01
	memrcol4722	5.578530e-01
	memrrow4722	5.955333e-01
	memrcol4721	5.880121e-01
	memrrow4721	6.312245e-01
	memrcol4720	6.214648e-01
	memrrow4720	6.712370e-01
	memrcol4719	6.586385e-01
	memrrow4719	7.162267e-01
	memrcol4718	7.000607e-01
	memrrow4718	7.669752e-01
	memrcol4717	7.463295e-01
	memrrow4717	8.244151e-01
	memrcol4716	7.981575e-01
	memrrow4716	8.896637e-01
	memrcol4715	8.563896e-01
	memrrow4715	9.640628e-01
	memrcol4714	9.220324e-01
	memrrow4714	1.049229e+00
	memrcol4713	9.962894e-01
	memrrow4713	1.147115e+00
	memrcol4712	1.080605e+00
	memrrow4712	1.260084e+00
	memrcol4711	1.176720e+00
	memrrow4711	1.391001e+00
	memrcol4710	1.286743e+00
	memrrow4710	1.543345e+00
	memrcol479	1.413206e+00
	memrrow479	1.721350e+00
	memrcol478	1.559215e+00
	memrrow478	1.930170e+00
	memrcol477	1.728549e+00
	memrrow477	2.176084e+00
	memrcol476	1.925823e+00
	memrrow476	2.466753e+00
	memrcol475	2.156694e+00
	memrrow475	2.811514e+00
	memrcol474	2.428101e+00
	memrrow474	3.221757e+00
	memrcol473	2.748583e+00
	memrrow473	3.711366e+00
	memrcol472	3.128656e+00
	memrrow472	4.297253e+00
	memrcol471	3.581303e+00
	memrcol4650	3.644242e-01
	memrrow4650	3.696865e-01
	memrcol4649	3.649072e-01
	memrrow4649	3.702127e-01
	memrcol4648	3.658831e-01
	memrrow4648	3.712695e-01
	memrcol4647	3.673573e-01
	memrrow4647	3.728650e-01
	memrcol4646	3.693410e-01
	memrrow4646	3.750112e-01
	memrcol4645	3.718488e-01
	memrrow4645	3.777244e-01
	memrcol4644	3.748994e-01
	memrrow4644	3.810252e-01
	memrcol4643	3.785152e-01
	memrrow4643	3.849385e-01
	memrcol4642	3.827227e-01
	memrrow4642	3.894942e-01
	memrcol4641	3.875528e-01
	memrrow4641	3.947270e-01
	memrcol4640	3.930433e-01
	memrrow4640	4.006773e-01
	memrcol4639	3.992263e-01
	memrrow4639	4.073909e-01
	memrcol4638	4.061566e-01
	memrrow4638	4.149210e-01
	memrcol4637	4.138843e-01
	memrrow4637	4.233276e-01
	memrcol4636	4.224681e-01
	memrrow4636	4.326784e-01
	memrcol4635	4.319740e-01
	memrrow4635	4.430503e-01
	memrcol4634	4.424757e-01
	memrrow4634	4.545299e-01
	memrcol4633	4.540558e-01
	memrrow4633	4.672148e-01
	memrcol4632	4.668068e-01
	memrrow4632	4.812157e-01
	memrcol4631	4.808323e-01
	memrrow4631	4.966574e-01
	memrcol4630	4.962508e-01
	memrrow4630	5.136816e-01
	memrcol4629	5.131842e-01
	memrrow4629	5.324490e-01
	memrcol4628	5.317887e-01
	memrrow4628	5.531428e-01
	memrcol4627	5.522283e-01
	memrrow4627	5.759720e-01
	memrcol4626	5.746910e-01
	memrrow4626	6.011755e-01
	memrcol4625	5.993898e-01
	memrrow4625	6.290275e-01
	memrcol4624	6.265668e-01
	memrrow4624	6.598433e-01
	memrcol4623	6.564982e-01
	memrrow4623	6.939868e-01
	memrcol4622	6.894998e-01
	memrrow4622	7.318791e-01
	memrcol4621	7.259341e-01
	memrrow4621	7.740093e-01
	memrcol4620	7.662218e-01
	memrrow4620	8.209470e-01
	memrcol4619	8.108316e-01
	memrrow4619	8.733573e-01
	memrcol4618	8.603449e-01
	memrrow4618	9.320201e-01
	memrcol4617	9.154073e-01
	memrrow4617	9.978505e-01
	memrcol4616	9.767809e-01
	memrrow4616	1.071925e+00
	memrcol4615	1.045359e+00
	memrrow4615	1.155514e+00
	memrcol4614	1.122193e+00
	memrrow4614	1.250119e+00
	memrcol4613	1.208525e+00
	memrrow4613	1.357516e+00
	memrcol4612	1.305826e+00
	memrrow4612	1.479812e+00
	memrcol4611	1.415845e+00
	memrrow4611	1.619507e+00
	memrcol4610	1.540673e+00
	memrrow4610	1.779568e+00
	memrcol469	1.682779e+00
	memrrow469	1.963519e+00
	memrcol468	1.845154e+00
	memrrow468	2.175543e+00
	memrcol467	2.031381e+00
	memrrow467	2.420607e+00
	memrcol466	2.245769e+00
	memrrow466	2.704593e+00
	memrcol465	2.493508e+00
	memrrow465	3.034461e+00
	memrcol464	2.780863e+00
	memrrow464	3.418425e+00
	memrcol463	3.115401e+00
	memrrow463	3.866145e+00
	memrcol462	3.506277e+00
	memrrow462	4.388939e+00
	memrcol461	3.964573e+00
	memrcol4550	4.361383e-01
	memrrow4550	4.423504e-01
	memrcol4549	4.367083e-01
	memrrow4549	4.429716e-01
	memrcol4548	4.378613e-01
	memrrow4548	4.442191e-01
	memrcol4547	4.396031e-01
	memrrow4547	4.461024e-01
	memrcol4546	4.419468e-01
	memrrow4546	4.486357e-01
	memrcol4545	4.449099e-01
	memrrow4545	4.518378e-01
	memrcol4544	4.485141e-01
	memrrow4544	4.557327e-01
	memrcol4543	4.527857e-01
	memrrow4543	4.603495e-01
	memrcol4542	4.577558e-01
	memrrow4542	4.657227e-01
	memrcol4541	4.634604e-01
	memrrow4541	4.718926e-01
	memrcol4540	4.699442e-01
	memrrow4540	4.789057e-01
	memrcol4539	4.772426e-01
	memrrow4539	4.868149e-01
	memrcol4538	4.854215e-01
	memrrow4538	4.956814e-01
	memrcol4537	4.945384e-01
	memrrow4537	5.055738e-01
	memrcol4536	5.046615e-01
	memrrow4536	5.165698e-01
	memrcol4535	5.158671e-01
	memrrow4535	5.287566e-01
	memrcol4534	5.282404e-01
	memrrow4534	5.422324e-01
	memrcol4533	5.418762e-01
	memrrow4533	5.571074e-01
	memrcol4532	5.568807e-01
	memrrow4532	5.735054e-01
	memrcol4531	5.733723e-01
	memrrow4531	5.915660e-01
	memrcol4530	5.914864e-01
	memrrow4530	6.114459e-01
	memrcol4529	6.113587e-01
	memrrow4529	6.333218e-01
	memrcol4528	6.331679e-01
	memrrow4528	6.573940e-01
	memrcol4527	6.570975e-01
	memrrow4527	6.838888e-01
	memrcol4526	6.833571e-01
	memrrow4526	7.130628e-01
	memrcol4525	7.121832e-01
	memrrow4525	7.452073e-01
	memrcol4524	7.438423e-01
	memrrow4524	7.806542e-01
	memrcol4523	7.786365e-01
	memrrow4523	8.197823e-01
	memrcol4522	8.169086e-01
	memrrow4522	8.630250e-01
	memrcol4521	8.590486e-01
	memrrow4521	9.108794e-01
	memrcol4520	9.055063e-01
	memrrow4520	9.639168e-01
	memrcol4519	9.567720e-01
	memrrow4519	1.022795e+00
	memrcol4518	1.013462e+00
	memrrow4518	1.088276e+00
	memrcol4517	1.076241e+00
	memrrow4517	1.161238e+00
	memrcol4516	1.145890e+00
	memrrow4516	1.242700e+00
	memrcol4515	1.223313e+00
	memrrow4515	1.333843e+00
	memrcol4514	1.309562e+00
	memrrow4514	1.436039e+00
	memrcol4513	1.405862e+00
	memrrow4513	1.550883e+00
	memrcol4512	1.513649e+00
	memrrow4512	1.680229e+00
	memrcol4511	1.634603e+00
	memrrow4511	1.826233e+00
	memrcol4510	1.770713e+00
	memrrow4510	1.991400e+00
	memrcol459	1.924277e+00
	memrrow459	2.178635e+00
	memrcol458	2.098054e+00
	memrrow458	2.391307e+00
	memrcol457	2.295291e+00
	memrrow457	2.633304e+00
	memrcol456	2.519833e+00
	memrrow456	2.909101e+00
	memrcol455	2.776228e+00
	memrrow455	3.223826e+00
	memrcol454	3.069869e+00
	memrrow454	3.583311e+00
	memrcol453	3.407146e+00
	memrrow453	3.994140e+00
	memrcol452	3.795631e+00
	memrrow452	4.463668e+00
	memrcol451	4.244300e+00
	memrcol4450	5.072312e-01
	memrrow4450	5.143412e-01
	memrcol4449	5.078831e-01
	memrrow4449	5.150522e-01
	memrcol4448	5.092036e-01
	memrrow4448	5.164801e-01
	memrcol4447	5.111988e-01
	memrrow4447	5.186356e-01
	memrcol4446	5.138837e-01
	memrrow4446	5.215348e-01
	memrcol4445	5.172782e-01
	memrrow4445	5.251991e-01
	memrcol4444	5.214069e-01
	memrrow4444	5.296555e-01
	memrcol4443	5.262999e-01
	memrrow4443	5.349368e-01
	memrcol4442	5.319922e-01
	memrrow4442	5.410818e-01
	memrcol4441	5.385248e-01
	memrrow4441	5.481357e-01
	memrcol4440	5.459490e-01
	memrrow4440	5.561508e-01
	memrcol4439	5.543017e-01
	memrrow4439	5.651860e-01
	memrcol4438	5.636603e-01
	memrrow4438	5.753096e-01
	memrcol4437	5.740889e-01
	memrrow4437	5.865981e-01
	memrcol4436	5.856640e-01
	memrrow4436	5.991376e-01
	memrcol4435	5.984713e-01
	memrrow4435	6.130245e-01
	memrcol4434	6.126058e-01
	memrrow4434	6.283666e-01
	memrcol4433	6.281735e-01
	memrrow4433	6.452849e-01
	memrcol4432	6.452922e-01
	memrrow4432	6.639143e-01
	memrcol4431	6.640929e-01
	memrrow4431	6.844059e-01
	memrcol4430	6.847259e-01
	memrrow4430	7.069288e-01
	memrcol4429	7.073368e-01
	memrrow4429	7.316719e-01
	memrcol4428	7.321245e-01
	memrrow4428	7.588486e-01
	memrcol4427	7.592875e-01
	memrrow4427	7.886977e-01
	memrcol4426	7.890527e-01
	memrrow4426	8.214878e-01
	memrcol4425	8.216741e-01
	memrrow4425	8.575214e-01
	memrcol4424	8.574366e-01
	memrrow4424	8.971398e-01
	memrcol4423	8.966603e-01
	memrrow4423	9.407284e-01
	memrcol4422	9.397057e-01
	memrrow4422	9.887239e-01
	memrcol4421	9.869800e-01
	memrrow4421	1.041621e+00
	memrcol4420	1.038950e+00
	memrrow4420	1.099983e+00
	memrcol4419	1.096110e+00
	memrrow4419	1.164447e+00
	memrcol4418	1.159097e+00
	memrrow4418	1.235746e+00
	memrcol4417	1.228575e+00
	memrrow4417	1.314709e+00
	memrcol4416	1.305318e+00
	memrrow4416	1.402286e+00
	memrcol4415	1.390214e+00
	memrrow4415	1.499559e+00
	memrcol4414	1.484282e+00
	memrrow4414	1.607767e+00
	memrcol4413	1.588697e+00
	memrrow4413	1.728324e+00
	memrcol4412	1.704813e+00
	memrrow4412	1.862843e+00
	memrcol4411	1.834198e+00
	memrrow4411	2.013165e+00
	memrcol4410	1.978684e+00
	memrrow4410	2.181384e+00
	memrcol4350	5.776132e-01
	memrrow4350	5.855628e-01
	memrcol4349	5.783410e-01
	memrrow4349	5.863578e-01
	memrcol4348	5.798184e-01
	memrrow4348	5.879544e-01
	memrcol4347	5.820509e-01
	memrrow4347	5.903646e-01
	memrcol4346	5.850556e-01
	memrrow4346	5.936062e-01
	memrcol4345	5.888544e-01
	memrrow4345	5.977029e-01
	memrcol4344	5.934749e-01
	memrrow4344	6.026844e-01
	memrcol4343	5.989503e-01
	memrrow4343	6.085869e-01
	memrcol4342	6.053197e-01
	memrrow4342	6.154530e-01
	memrcol4341	6.126281e-01
	memrrow4341	6.233325e-01
	memrcol4340	6.209335e-01
	memrrow4340	6.322824e-01
	memrcol4339	6.302723e-01
	memrrow4339	6.423672e-01
	memrcol4338	6.407342e-01
	memrrow4338	6.536614e-01
	memrcol4337	6.523884e-01
	memrrow4337	6.662484e-01
	memrcol4336	6.653192e-01
	memrrow4336	6.802214e-01
	memrcol4335	6.796201e-01
	memrrow4335	6.956846e-01
	memrcol4334	6.953952e-01
	memrrow4334	7.127543e-01
	memrcol4333	7.127597e-01
	memrrow4333	7.315599e-01
	memrcol4332	7.318415e-01
	memrrow4332	7.522455e-01
	memrcol4331	7.527822e-01
	memrrow4331	7.749714e-01
	memrcol4330	7.757452e-01
	memrrow4330	7.999163e-01
	memrcol4329	8.008814e-01
	memrrow4329	8.272784e-01
	memrcol4328	8.284087e-01
	memrrow4328	8.572801e-01
	memrcol4327	8.585365e-01
	memrrow4327	8.901689e-01
	memrcol4326	8.915048e-01
	memrrow4326	9.262210e-01
	memrcol4325	9.275804e-01
	memrrow4325	9.657448e-01
	memrcol4324	9.670606e-01
	memrrow4324	1.009085e+00
	memrcol4323	1.010277e+00
	memrrow4323	1.056628e+00
	memrcol4322	1.057601e+00
	memrrow4322	1.108805e+00
	memrcol4321	1.109447e+00
	memrrow4321	1.166103e+00
	memrcol4320	1.166290e+00
	memrrow4320	1.229067e+00
	memrcol4319	1.228615e+00
	memrrow4319	1.298308e+00
	memrcol4318	1.297067e+00
	memrrow4318	1.374519e+00
	memrcol4317	1.372295e+00
	memrrow4317	1.458475e+00
	memrcol4316	1.455049e+00
	memrrow4316	1.551048e+00
	memrcol4315	1.546180e+00
	memrrow4315	1.653222e+00
	memrcol4314	1.646655e+00
	memrrow4314	1.766100e+00
	memrcol4313	1.757569e+00
	memrrow4313	1.890922e+00
	memrcol4312	1.880174e+00
	memrrow4312	2.029080e+00
	memrcol4311	2.015896e+00
	memrrow4311	2.182128e+00
	memrcol4310	2.166386e+00
	memrrow4310	2.351800e+00
	memrcol4250	6.472002e-01
	memrrow4250	6.559255e-01
	memrcol4249	6.479973e-01
	memrrow4249	6.567981e-01
	memrcol4248	6.496195e-01
	memrrow4248	6.585507e-01
	memrcol4247	6.520717e-01
	memrrow4247	6.611964e-01
	memrcol4246	6.553723e-01
	memrrow4246	6.647546e-01
	memrcol4245	6.595457e-01
	memrrow4245	6.692511e-01
	memrcol4244	6.646219e-01
	memrrow4244	6.747181e-01
	memrcol4243	6.706371e-01
	memrrow4243	6.811947e-01
	memrcol4242	6.776338e-01
	memrrow4242	6.887270e-01
	memrcol4241	6.856610e-01
	memrrow4241	6.973687e-01
	memrcol4240	6.947832e-01
	memrrow4240	7.071811e-01
	memrcol4239	7.050335e-01
	memrrow4239	7.182333e-01
	memrcol4238	7.165154e-01
	memrrow4238	7.306055e-01
	memrcol4237	7.293020e-01
	memrrow4237	7.443868e-01
	memrcol4236	7.434841e-01
	memrrow4236	7.596765e-01
	memrcol4235	7.591625e-01
	memrrow4235	7.765854e-01
	memrcol4234	7.764487e-01
	memrrow4234	7.952367e-01
	memrcol4233	7.954659e-01
	memrrow4233	8.157667e-01
	memrcol4232	8.163504e-01
	memrrow4232	8.383268e-01
	memrcol4231	8.392525e-01
	memrrow4231	8.630846e-01
	memrcol4230	8.643474e-01
	memrrow4230	8.902256e-01
	memrcol4229	8.917864e-01
	memrrow4229	9.199543e-01
	memrcol4228	9.218057e-01
	memrrow4228	9.524999e-01
	memrcol4227	9.546223e-01
	memrrow4227	9.881149e-01
	memrcol4226	9.904852e-01
	memrrow4226	1.027079e+00
	memrcol4225	1.029670e+00
	memrrow4225	1.069703e+00
	memrcol4224	1.072482e+00
	memrrow4224	1.116330e+00
	memrcol4223	1.119259e+00
	memrrow4223	1.167341e+00
	memrcol4222	1.170376e+00
	memrrow4222	1.223161e+00
	memrcol4221	1.226249e+00
	memrrow4221	1.284260e+00
	memrcol4220	1.287352e+00
	memrrow4220	1.351159e+00
	memrcol4219	1.354150e+00
	memrrow4219	1.424439e+00
	memrcol4218	1.427292e+00
	memrrow4218	1.504749e+00
	memrcol4217	1.507397e+00
	memrrow4217	1.592803e+00
	memrcol4216	1.595180e+00
	memrrow4216	1.689399e+00
	memrcol4215	1.691443e+00
	memrrow4215	1.795416e+00
	memrcol4214	1.797082e+00
	memrrow4214	1.911830e+00
	memrcol4213	1.913106e+00
	memrrow4213	2.039720e+00
	memrcol4212	2.040645e+00
	memrrow4212	2.180271e+00
	memrcol4211	2.180971e+00
	memrrow4211	2.334784e+00
	memrcol4210	2.335546e+00
	memrrow4210	2.504679e+00
	memrcol4150	7.159146e-01
	memrrow4150	7.253466e-01
	memrcol4149	7.167734e-01
	memrrow4149	7.262898e-01
	memrcol4148	7.185275e-01
	memrrow4148	7.281847e-01
	memrcol4147	7.211800e-01
	memrrow4147	7.310452e-01
	memrcol4146	7.247509e-01
	memrrow4146	7.348923e-01
	memrcol4145	7.292665e-01
	memrrow4145	7.397536e-01
	memrcol4144	7.347593e-01
	memrrow4144	7.456635e-01
	memrcol4143	7.412682e-01
	memrrow4143	7.526639e-01
	memrcol4142	7.488386e-01
	memrrow4142	7.608038e-01
	memrcol4141	7.575231e-01
	memrrow4141	7.701403e-01
	memrcol4140	7.673930e-01
	memrrow4140	7.807385e-01
	memrcol4139	7.784747e-01
	memrrow4139	7.926712e-01
	memrcol4138	7.908875e-01
	memrrow4138	8.060236e-01
	memrcol4137	8.047071e-01
	memrrow4137	8.208896e-01
	memrcol4136	8.200298e-01
	memrrow4136	8.373738e-01
	memrcol4135	8.369626e-01
	memrrow4135	8.555924e-01
	memrcol4134	8.556233e-01
	memrrow4134	8.756741e-01
	memrcol4133	8.761420e-01
	memrrow4133	8.977607e-01
	memrcol4132	8.986616e-01
	memrrow4132	9.220093e-01
	memrcol4131	9.233397e-01
	memrrow4131	9.485926e-01
	memrcol4130	9.503618e-01
	memrrow4130	9.777013e-01
	memrcol4129	9.798745e-01
	memrrow4129	1.009544e+00
	memrcol4128	1.012133e+00
	memrrow4128	1.044353e+00
	memrcol4127	1.047359e+00
	memrrow4127	1.082385e+00
	memrcol4126	1.085806e+00
	memrrow4126	1.123919e+00
	memrcol4125	1.127757e+00
	memrrow4125	1.169264e+00
	memrcol4124	1.173519e+00
	memrrow4124	1.218760e+00
	memrcol4123	1.223433e+00
	memrrow4123	1.272781e+00
	memrcol4122	1.277872e+00
	memrrow4122	1.331736e+00
	memrcol4121	1.337250e+00
	memrrow4121	1.396077e+00
	memrcol4120	1.402034e+00
	memrrow4120	1.466301e+00
	memrcol4119	1.472656e+00
	memrrow4119	1.542952e+00
	memrcol4118	1.549772e+00
	memrrow4118	1.626633e+00
	memrcol4117	1.633959e+00
	memrrow4117	1.718000e+00
	memrcol4116	1.725890e+00
	memrrow4116	1.817770e+00
	memrcol4115	1.826308e+00
	memrrow4115	1.926729e+00
	memrcol4114	1.936035e+00
	memrrow4114	2.045730e+00
	memrcol4113	2.055981e+00
	memrrow4113	2.175701e+00
	memrcol4112	2.187153e+00
	memrrow4112	2.317643e+00
	memrcol4111	2.330665e+00
	memrrow4111	2.472635e+00
	memrcol4110	2.487794e+00
	memrrow4110	2.641823e+00
	memrcol4050	7.836858e-01
	memrrow4050	7.937507e-01
	memrcol4049	7.845979e-01
	memrrow4049	7.947572e-01
	memrcol4048	7.864698e-01
	memrrow4048	7.967796e-01
	memrcol4047	7.893017e-01
	memrrow4047	7.998331e-01
	memrcol4046	7.931153e-01
	memrrow4046	8.039396e-01
	memrcol4045	7.979386e-01
	memrrow4045	8.091286e-01
	memrcol4044	8.038063e-01
	memrrow4044	8.154365e-01
	memrcol4043	8.107596e-01
	memrrow4043	8.229075e-01
	memrcol4042	8.188469e-01
	memrrow4042	8.315933e-01
	memrcol4041	8.281235e-01
	memrrow4041	8.415537e-01
	memrcol4040	8.386684e-01
	memrrow4040	8.528572e-01
	memrcol4039	8.504962e-01
	memrrow4039	8.655795e-01
	memrcol4038	8.637461e-01
	memrrow4038	8.798101e-01
	memrcol4037	8.784939e-01
	memrrow4037	8.956472e-01
	memrcol4036	8.948412e-01
	memrrow4036	9.131996e-01
	memrcol4035	9.128998e-01
	memrrow4035	9.325878e-01
	memrcol4034	9.327929e-01
	memrrow4034	9.539448e-01
	memrcol4033	9.546562e-01
	memrrow4033	9.774171e-01
	memrcol4032	9.786380e-01
	memrrow4032	1.003165e+00
	memrcol4031	1.004902e+00
	memrrow4031	1.031366e+00
	memrcol4030	1.033642e+00
	memrrow4030	1.062214e+00
	memrcol4029	1.064996e+00
	memrrow4029	1.095919e+00
	memrcol4028	1.099239e+00
	memrrow4028	1.132716e+00
	memrcol4027	1.136593e+00
	memrrow4027	1.172860e+00
	memrcol4026	1.177316e+00
	memrrow4026	1.216632e+00
	memrcol4025	1.221692e+00
	memrrow4025	1.264335e+00
	memrcol4024	1.270032e+00
	memrrow4024	1.316302e+00
	memrcol4023	1.322672e+00
	memrrow4023	1.372896e+00
	memrcol4022	1.379982e+00
	memrrow4022	1.434513e+00
	memrcol4021	1.442368e+00
	memrrow4021	1.501582e+00
	memrcol4020	1.510289e+00
	memrrow4020	1.574574e+00
	memrcol4019	1.584132e+00
	memrrow4019	1.653993e+00
	memrcol4018	1.664565e+00
	memrrow4018	1.740399e+00
	memrcol4017	1.752116e+00
	memrrow4017	1.834388e+00
	memrcol4016	1.847411e+00
	memrrow4016	1.936604e+00
	memrcol4015	1.951130e+00
	memrrow4015	2.047740e+00
	memrcol4014	2.064018e+00
	memrrow4014	2.168537e+00
	memrcol4013	2.186885e+00
	memrrow4013	2.299785e+00
	memrcol4012	2.320612e+00
	memrrow4012	2.442323e+00
	memrcol4011	2.466162e+00
	memrrow4011	2.597033e+00
	memrcol4010	2.624638e+00
	memrrow4010	2.764829e+00
	memrcol409	2.797029e+00
	memrrow409	2.946645e+00
	memrcol408	2.984617e+00
	memrrow408	3.143423e+00
	memrcol407	3.188726e+00
	memrrow407	3.356081e+00
	memrcol406	3.410768e+00
	memrrow406	3.585474e+00
	memrcol405	3.652236e+00
	memrrow405	3.832338e+00
	memrcol404	3.914680e+00
	memrrow404	4.097212e+00
	memrcol403	4.199681e+00
	memrrow403	4.380340e+00
	memrcol402	4.508798e+00
	memrrow402	4.681533e+00
	memrcol401	4.843505e+00
	memrcol3950	8.504506e-01
	memrrow3950	8.610703e-01
	memrcol3949	8.514065e-01
	memrrow3949	8.621322e-01
	memrcol3948	8.533811e-01
	memrrow3948	8.642668e-01
	memrcol3947	8.563703e-01
	memrrow3947	8.674899e-01
	memrcol3946	8.603972e-01
	memrrow3946	8.718250e-01
	memrcol3945	8.654917e-01
	memrrow3945	8.773028e-01
	memrcol3944	8.716903e-01
	memrrow3944	8.839617e-01
	memrcol3943	8.790363e-01
	memrrow3943	8.918478e-01
	memrcol3942	8.875805e-01
	memrrow3942	9.010151e-01
	memrcol3941	8.973808e-01
	memrrow3941	9.115258e-01
	memrcol3940	9.085248e-01
	memrrow3940	9.234510e-01
	memrcol3939	9.210094e-01
	memrrow3939	9.368688e-01
	memrcol3938	9.349982e-01
	memrrow3938	9.518726e-01
	memrcol3937	9.505654e-01
	memrrow3937	9.685637e-01
	memrcol3936	9.678166e-01
	memrrow3936	9.870548e-01
	memrcol3935	9.868681e-01
	memrrow3935	1.007470e+00
	memrcol3934	1.007847e+00
	memrrow3934	1.029945e+00
	memrcol3933	1.030894e+00
	memrrow3933	1.054629e+00
	memrcol3932	1.056162e+00
	memrrow3932	1.081687e+00
	memrcol3931	1.083817e+00
	memrrow3931	1.111298e+00
	memrcol3930	1.114065e+00
	memrrow3930	1.143657e+00
	memrcol3929	1.147025e+00
	memrrow3929	1.178975e+00
	memrcol3928	1.182997e+00
	memrrow3928	1.217488e+00
	memrcol3927	1.222200e+00
	memrrow3927	1.259451e+00
	memrcol3926	1.264894e+00
	memrrow3926	1.305138e+00
	memrcol3925	1.311364e+00
	memrrow3925	1.354850e+00
	memrcol3924	1.361917e+00
	memrrow3924	1.408910e+00
	memrcol3923	1.416888e+00
	memrrow3923	1.467670e+00
	memrcol3922	1.476639e+00
	memrrow3922	1.531507e+00
	memrcol3921	1.541564e+00
	memrrow3921	1.600832e+00
	memrcol3920	1.612116e+00
	memrrow3920	1.676083e+00
	memrcol3919	1.688623e+00
	memrrow3919	1.757731e+00
	memrcol3918	1.771776e+00
	memrrow3918	1.846290e+00
	memrcol3917	1.862047e+00
	memrrow3917	1.942300e+00
	memrcol3916	1.960013e+00
	memrrow3916	2.046336e+00
	memrcol3915	2.066292e+00
	memrrow3915	2.159004e+00
	memrcol3914	2.181550e+00
	memrrow3914	2.280943e+00
	memrcol3913	2.306498e+00
	memrrow3913	2.412822e+00
	memrcol3912	2.441900e+00
	memrrow3912	2.555332e+00
	memrcol3911	2.588572e+00
	memrrow3911	2.709187e+00
	memrcol3910	2.747463e+00
	memrrow3910	2.875102e+00
	memrcol399	2.919300e+00
	memrrow399	3.053782e+00
	memrcol398	3.105135e+00
	memrrow398	3.245909e+00
	memrcol397	3.305996e+00
	memrrow397	3.452114e+00
	memrcol396	3.522949e+00
	memrrow396	3.672931e+00
	memrcol395	3.757078e+00
	memrrow395	3.908746e+00
	memrcol394	4.009460e+00
	memrrow394	4.159728e+00
	memrcol393	4.281119e+00
	memrrow393	4.425737e+00
	memrcol392	4.572980e+00
	memrrow392	4.706207e+00
	memrcol391	4.885783e+00
	memrcol3850	9.161534e-01
	memrrow3850	9.272458e-01
	memrcol3849	9.171425e-01
	memrrow3849	9.283550e-01
	memrcol3848	9.192038e-01
	memrrow3848	9.305855e-01
	memrcol3847	9.223270e-01
	memrrow3847	9.339542e-01
	memrcol3846	9.265364e-01
	memrrow3846	9.384856e-01
	memrcol3845	9.318637e-01
	memrrow3845	9.442119e-01
	memrcol3844	9.383471e-01
	memrrow3844	9.511730e-01
	memrcol3843	9.460318e-01
	memrrow3843	9.594167e-01
	memrcol3842	9.549706e-01
	memrrow3842	9.689989e-01
	memrcol3841	9.652236e-01
	memrrow3841	9.799839e-01
	memrcol3840	9.768887e-01
	memrrow3840	9.924449e-01
	memrcol3839	9.899366e-01
	memrrow3839	1.006462e+00
	memrcol3838	1.004563e+00
	memrrow3838	1.022131e+00
	memrcol3837	1.020837e+00
	memrrow3837	1.039557e+00
	memrcol3836	1.038868e+00
	memrrow3836	1.058855e+00
	memrcol3835	1.058776e+00
	memrrow3835	1.080151e+00
	memrcol3834	1.080692e+00
	memrrow3834	1.103585e+00
	memrcol3833	1.104759e+00
	memrrow3833	1.129308e+00
	memrcol3832	1.131133e+00
	memrrow3832	1.157487e+00
	memrcol3831	1.159984e+00
	memrrow3831	1.188300e+00
	memrcol3830	1.191530e+00
	memrrow3830	1.221945e+00
	memrcol3829	1.225858e+00
	memrrow3829	1.258632e+00
	memrcol3828	1.263306e+00
	memrrow3828	1.298596e+00
	memrcol3827	1.304082e+00
	memrrow3827	1.342089e+00
	memrcol3826	1.348448e+00
	memrrow3826	1.389383e+00
	memrcol3825	1.396687e+00
	memrrow3825	1.440770e+00
	memrcol3824	1.449104e+00
	memrrow3824	1.496566e+00
	memrcol3823	1.506027e+00
	memrrow3823	1.557108e+00
	memrcol3822	1.567810e+00
	memrrow3822	1.622758e+00
	memrcol3821	1.634834e+00
	memrrow3821	1.693903e+00
	memrcol3820	1.707546e+00
	memrrow3820	1.770955e+00
	memrcol3819	1.786202e+00
	memrrow3819	1.854348e+00
	memrcol3818	1.871534e+00
	memrrow3818	1.944556e+00
	memrcol3817	1.963952e+00
	memrrow3817	2.042065e+00
	memrcol3816	2.063982e+00
	memrrow3816	2.147386e+00
	memrcol3815	2.172183e+00
	memrrow3815	2.261048e+00
	memrcol3814	2.289142e+00
	memrrow3814	2.383595e+00
	memrcol3813	2.415479e+00
	memrrow3813	2.515589e+00
	memrcol3812	2.551845e+00
	memrrow3812	2.657593e+00
	memrcol3811	2.698921e+00
	memrrow3811	2.810172e+00
	memrcol3810	2.857524e+00
	memrrow3810	2.973876e+00
	memrcol389	3.028123e+00
	memrrow389	3.149215e+00
	memrcol388	3.211576e+00
	memrrow388	3.336664e+00
	memrcol387	3.408655e+00
	memrrow387	3.536622e+00
	memrcol386	3.620132e+00
	memrrow386	3.749376e+00
	memrcol385	3.846754e+00
	memrrow385	3.975054e+00
	memrcol384	4.089212e+00
	memrrow384	4.213563e+00
	memrcol383	4.348096e+00
	memrrow383	4.464506e+00
	memrcol382	4.623839e+00
	memrrow382	4.727090e+00
	memrcol381	4.916640e+00
	memrcol3750	9.807469e-01
	memrrow3750	9.922263e-01
	memrcol3749	9.817573e-01
	memrrow3749	9.933742e-01
	memrcol3748	9.838884e-01
	memrrow3748	9.956838e-01
	memrcol3747	9.871209e-01
	memrrow3747	9.991730e-01
	memrcol3746	9.914807e-01
	memrrow3746	1.003867e+00
	memrcol3745	9.970009e-01
	memrrow3745	1.009800e+00
	memrcol3744	1.003721e+00
	memrrow3744	1.017013e+00
	memrcol3743	1.011689e+00
	memrrow3743	1.025556e+00
	memrcol3742	1.020958e+00
	memrrow3742	1.035484e+00
	memrcol3741	1.031590e+00
	memrrow3741	1.046866e+00
	memrcol3740	1.043697e+00
	memrrow3740	1.059775e+00
	memrcol3739	1.057211e+00
	memrrow3739	1.074292e+00
	memrcol3738	1.072371e+00
	memrrow3738	1.090517e+00
	memrcol3737	1.089237e+00
	memrrow3737	1.108556e+00
	memrcol3736	1.107921e+00
	memrrow3736	1.128528e+00
	memrcol3735	1.128547e+00
	memrrow3735	1.150560e+00
	memrcol3734	1.151247e+00
	memrrow3734	1.174793e+00
	memrcol3733	1.176169e+00
	memrrow3733	1.201381e+00
	memrcol3732	1.203469e+00
	memrrow3732	1.230490e+00
	memrcol3731	1.233320e+00
	memrrow3731	1.262302e+00
	memrcol3730	1.265952e+00
	memrrow3730	1.297011e+00
	memrcol3729	1.301415e+00
	memrrow3729	1.334827e+00
	memrcol3728	1.340086e+00
	memrrow3728	1.375983e+00
	memrcol3727	1.382163e+00
	memrrow3727	1.420730e+00
	memrcol3726	1.427908e+00
	memrrow3726	1.469333e+00
	memrcol3725	1.477602e+00
	memrrow3725	1.522078e+00
	memrcol3724	1.531544e+00
	memrrow3724	1.579271e+00
	memrcol3723	1.590057e+00
	memrrow3723	1.641237e+00
	memrcol3722	1.653485e+00
	memrrow3722	1.708321e+00
	memrcol3721	1.722196e+00
	memrrow3721	1.780889e+00
	memrcol3720	1.796635e+00
	memrrow3720	1.859326e+00
	memrcol3719	1.876967e+00
	memrrow3719	1.944031e+00
	memrcol3718	1.963991e+00
	memrrow3718	2.035444e+00
	memrcol3717	2.058045e+00
	memrrow3717	2.134001e+00
	memrcol3716	2.159611e+00
	memrrow3716	2.240155e+00
	memrcol3715	2.269187e+00
	memrrow3715	2.354362e+00
	memrcol3714	2.387289e+00
	memrrow3714	2.477087e+00
	memrcol3713	2.514449e+00
	memrrow3713	2.608792e+00
	memrcol3712	2.651214e+00
	memrrow3712	2.749931e+00
	memrcol3711	2.798144e+00
	memrrow3711	2.900942e+00
	memrcol3710	2.955949e+00
	memrrow3710	3.062232e+00
	memrcol379	3.124836e+00
	memrrow379	3.234151e+00
	memrcol378	3.305507e+00
	memrrow378	3.417001e+00
	memrcol377	3.498517e+00
	memrrow377	3.611001e+00
	memrcol376	3.704391e+00
	memrrow376	3.816248e+00
	memrcol375	3.923601e+00
	memrrow375	4.032682e+00
	memrcol374	4.156530e+00
	memrrow374	4.260024e+00
	memrcol373	4.403432e+00
	memrrow373	4.497715e+00
	memrcol372	4.664373e+00
	memrrow372	4.744834e+00
	memrcol371	4.939160e+00
	memrcol3650	1.044193e+00
	memrrow3650	1.055969e+00
	memrcol3649	1.045210e+00
	memrrow3649	1.057147e+00
	memrcol3648	1.047393e+00
	memrrow3648	1.059518e+00
	memrcol3647	1.050710e+00
	memrrow3647	1.063102e+00
	memrcol3646	1.055186e+00
	memrrow3646	1.067925e+00
	memrcol3645	1.060858e+00
	memrrow3645	1.074022e+00
	memrcol3644	1.067766e+00
	memrrow3644	1.081435e+00
	memrcol3643	1.075959e+00
	memrrow3643	1.090216e+00
	memrcol3642	1.085493e+00
	memrrow3642	1.100422e+00
	memrcol3641	1.096430e+00
	memrrow3641	1.112120e+00
	memrcol3640	1.108897e+00
	memrrow3640	1.125388e+00
	memrcol3639	1.122778e+00
	memrrow3639	1.140305e+00
	memrcol3638	1.138364e+00
	memrrow3638	1.156975e+00
	memrcol3637	1.155705e+00
	memrrow3637	1.175505e+00
	memrcol3636	1.174914e+00
	memrrow3636	1.196016e+00
	memrcol3635	1.196116e+00
	memrrow3635	1.218637e+00
	memrcol3634	1.219448e+00
	memrrow3634	1.243510e+00
	memrcol3633	1.245057e+00
	memrrow3633	1.270790e+00
	memrcol3632	1.273102e+00
	memrrow3632	1.300642e+00
	memrcol3631	1.303758e+00
	memrrow3631	1.333249e+00
	memrcol3630	1.337269e+00
	memrrow3630	1.368804e+00
	memrcol3629	1.373630e+00
	memrrow3629	1.407514e+00
	memrcol3628	1.413276e+00
	memrrow3628	1.449611e+00
	memrcol3627	1.456388e+00
	memrrow3627	1.495343e+00
	memrcol3626	1.503226e+00
	memrrow3626	1.544969e+00
	memrcol3625	1.554069e+00
	memrrow3625	1.598770e+00
	memrcol3624	1.609211e+00
	memrrow3624	1.657041e+00
	memrcol3623	1.668969e+00
	memrrow3623	1.720096e+00
	memrcol3622	1.733677e+00
	memrrow3622	1.788263e+00
	memrcol3621	1.803690e+00
	memrrow3621	1.861888e+00
	memrcol3620	1.879455e+00
	memrrow3620	1.941333e+00
	memrcol3619	1.961026e+00
	memrrow3619	2.026966e+00
	memrcol3618	2.049302e+00
	memrrow3618	2.119194e+00
	memrcol3617	2.144544e+00
	memrrow3617	2.218410e+00
	memrcol3616	2.247186e+00
	memrrow3616	2.325013e+00
	memrcol3615	2.357674e+00
	memrrow3615	2.439399e+00
	memrcol3614	2.476456e+00
	memrrow3614	2.561957e+00
	memrcol3613	2.603984e+00
	memrrow3613	2.693065e+00
	memrcol3612	2.740713e+00
	memrrow3612	2.833081e+00
	memrcol3611	2.887088e+00
	memrrow3611	2.982335e+00
	memrcol3610	3.043747e+00
	memrrow3610	3.141113e+00
	memrcol369	3.210618e+00
	memrrow369	3.309627e+00
	memrcol368	3.388290e+00
	memrrow368	3.488042e+00
	memrcol367	3.577131e+00
	memrrow367	3.676433e+00
	memrcol366	3.777464e+00
	memrrow366	3.874754e+00
	memrcol365	3.989538e+00
	memrrow365	4.082804e+00
	memrcol364	4.213498e+00
	memrrow364	4.300180e+00
	memrcol363	4.449339e+00
	memrrow363	4.526224e+00
	memrcol362	4.696861e+00
	memrrow362	4.759957e+00
	memrcol361	4.955596e+00
	memrcol3550	1.106460e+00
	memrrow3550	1.118441e+00
	memrcol3549	1.107470e+00
	memrrow3549	1.119639e+00
	memrcol3548	1.109686e+00
	memrrow3548	1.122054e+00
	memrcol3547	1.113059e+00
	memrrow3547	1.125706e+00
	memrcol3546	1.117618e+00
	memrrow3546	1.130623e+00
	memrcol3545	1.123399e+00
	memrrow3545	1.136840e+00
	memrcol3544	1.130444e+00
	memrrow3544	1.144401e+00
	memrcol3543	1.138804e+00
	memrrow3543	1.153358e+00
	memrcol3542	1.148535e+00
	memrrow3542	1.163770e+00
	memrcol3541	1.159700e+00
	memrrow3541	1.175706e+00
	memrcol3540	1.172449e+00
	memrrow3540	1.189242e+00
	memrcol3539	1.186592e+00
	memrrow3539	1.204458e+00
	memrcol3538	1.202497e+00
	memrrow3538	1.221460e+00
	memrcol3537	1.220192e+00
	memrrow3537	1.240359e+00
	memrcol3536	1.239796e+00
	memrrow3536	1.261274e+00
	memrcol3535	1.261434e+00
	memrrow3535	1.284338e+00
	memrcol3534	1.285243e+00
	memrrow3534	1.309691e+00
	memrcol3533	1.311372e+00
	memrrow3533	1.337490e+00
	memrcol3532	1.339982e+00
	memrrow3532	1.367900e+00
	memrcol3531	1.371246e+00
	memrrow3531	1.401102e+00
	memrcol3530	1.405432e+00
	memrrow3530	1.437289e+00
	memrcol3529	1.442457e+00
	memrrow3529	1.476663e+00
	memrcol3528	1.482832e+00
	memrrow3528	1.519456e+00
	memrcol3527	1.526717e+00
	memrrow3527	1.565913e+00
	memrcol3526	1.574370e+00
	memrrow3526	1.616289e+00
	memrcol3525	1.626065e+00
	memrrow3525	1.670857e+00
	memrcol3524	1.682095e+00
	memrrow3524	1.729903e+00
	memrcol3523	1.742768e+00
	memrrow3523	1.793731e+00
	memrcol3522	1.808410e+00
	memrrow3522	1.862655e+00
	memrcol3521	1.879364e+00
	memrrow3521	1.937004e+00
	memrcol3520	1.956087e+00
	memrrow3520	2.017116e+00
	memrcol3519	2.038490e+00
	memrrow3519	2.103331e+00
	memrcol3518	2.127624e+00
	memrrow3518	2.196031e+00
	memrcol3517	2.223655e+00
	memrrow3517	2.295571e+00
	memrcol3516	2.326979e+00
	memrrow3516	2.402303e+00
	memrcol3515	2.437988e+00
	memrrow3515	2.516567e+00
	memrcol3514	2.557073e+00
	memrrow3514	2.638690e+00
	memrcol3513	2.684612e+00
	memrrow3513	2.768974e+00
	memrcol3512	2.820974e+00
	memrrow3512	2.907694e+00
	memrcol3511	2.966506e+00
	memrrow3511	3.055086e+00
	memrcol3510	3.121808e+00
	memrrow3510	3.211336e+00
	memrcol359	3.286499e+00
	memrrow359	3.376539e+00
	memrcol358	3.461097e+00
	memrrow358	3.550745e+00
	memrcol357	3.645815e+00
	memrrow357	3.733917e+00
	memrcol356	3.840808e+00
	memrrow356	3.925899e+00
	memrcol355	4.046150e+00
	memrrow355	4.126390e+00
	memrcol354	4.261798e+00
	memrrow354	4.334905e+00
	memrcol353	4.487558e+00
	memrrow353	4.550731e+00
	memrcol352	4.723039e+00
	memrrow352	4.772874e+00
	memrcol351	4.967592e+00
	memrcol3450	1.167530e+00
	memrrow3450	1.179618e+00
	memrcol3449	1.168512e+00
	memrrow3449	1.180826e+00
	memrcol3448	1.170742e+00
	memrrow3448	1.183267e+00
	memrcol3447	1.174144e+00
	memrrow3447	1.186959e+00
	memrcol3446	1.178749e+00
	memrrow3446	1.191933e+00
	memrcol3445	1.184596e+00
	memrrow3445	1.198226e+00
	memrcol3444	1.191727e+00
	memrrow3444	1.205882e+00
	memrcol3443	1.200193e+00
	memrrow3443	1.214953e+00
	memrcol3442	1.210053e+00
	memrrow3442	1.225500e+00
	memrcol3441	1.221370e+00
	memrrow3441	1.237592e+00
	memrcol3440	1.234321e+00
	memrrow3440	1.251306e+00
	memrcol3439	1.248620e+00
	memrrow3439	1.266718e+00
	memrcol3438	1.264733e+00
	memrrow3438	1.283940e+00
	memrcol3437	1.282663e+00
	memrrow3437	1.303083e+00
	memrcol3436	1.302530e+00
	memrrow3436	1.324268e+00
	memrcol3435	1.324461e+00
	memrrow3435	1.347627e+00
	memrcol3434	1.348593e+00
	memrrow3434	1.373303e+00
	memrcol3433	1.375075e+00
	memrrow3433	1.401450e+00
	memrcol3432	1.404070e+00
	memrrow3432	1.432234e+00
	memrcol3431	1.435749e+00
	memrrow3431	1.465834e+00
	memrcol3430	1.470409e+00
	memrrow3430	1.502443e+00
	memrcol3429	1.507864e+00
	memrrow3429	1.542255e+00
	memrcol3428	1.548726e+00
	memrrow3428	1.585507e+00
	memrcol3427	1.593126e+00
	memrrow3427	1.632437e+00
	memrcol3426	1.641322e+00
	memrrow3426	1.683297e+00
	memrcol3425	1.693583e+00
	memrrow3425	1.738356e+00
	memrcol3424	1.750199e+00
	memrrow3424	1.797891e+00
	memrcol3423	1.811471e+00
	memrrow3423	1.862196e+00
	memrcol3422	1.877719e+00
	memrrow3422	1.931573e+00
	memrcol3421	1.949273e+00
	memrrow3421	2.006336e+00
	memrcol3420	2.026616e+00
	memrrow3420	2.086805e+00
	memrcol3419	2.109470e+00
	memrrow3419	2.173293e+00
	memrcol3418	2.199105e+00
	memrrow3418	2.266164e+00
	memrcol3417	2.295575e+00
	memrrow3417	2.365740e+00
	memrcol3416	2.399238e+00
	memrrow3416	2.472332e+00
	memrcol3415	2.510445e+00
	memrrow3415	2.586234e+00
	memrcol3414	2.629528e+00
	memrrow3414	2.707715e+00
	memrcol3413	2.756804e+00
	memrrow3413	2.837015e+00
	memrcol3412	2.892563e+00
	memrrow3412	2.974336e+00
	memrcol3411	3.037067e+00
	memrrow3411	3.119834e+00
	memrcol3410	3.190916e+00
	memrrow3410	3.273609e+00
	memrcol3350	1.227391e+00
	memrrow3350	1.239483e+00
	memrcol3349	1.228323e+00
	memrrow3349	1.240692e+00
	memrcol3348	1.230545e+00
	memrrow3348	1.243138e+00
	memrcol3347	1.233947e+00
	memrrow3347	1.246844e+00
	memrcol3346	1.238562e+00
	memrrow3346	1.251839e+00
	memrcol3345	1.244429e+00
	memrrow3345	1.258162e+00
	memrcol3344	1.251594e+00
	memrrow3344	1.265858e+00
	memrcol3343	1.260107e+00
	memrrow3343	1.274980e+00
	memrcol3342	1.270026e+00
	memrrow3342	1.285590e+00
	memrcol3341	1.281417e+00
	memrrow3341	1.297757e+00
	memrcol3340	1.294494e+00
	memrrow3340	1.311557e+00
	memrcol3339	1.308837e+00
	memrrow3339	1.327063e+00
	memrcol3338	1.325048e+00
	memrrow3338	1.344393e+00
	memrcol3337	1.343092e+00
	memrrow3337	1.363656e+00
	memrcol3336	1.363091e+00
	memrrow3336	1.384976e+00
	memrcol3335	1.385171e+00
	memrrow3335	1.408485e+00
	memrcol3334	1.409471e+00
	memrrow3334	1.434325e+00
	memrcol3333	1.436141e+00
	memrrow3333	1.462650e+00
	memrcol3332	1.465341e+00
	memrrow3332	1.493627e+00
	memrcol3331	1.497243e+00
	memrrow3331	1.527431e+00
	memrcol3330	1.532183e+00
	memrrow3330	1.564255e+00
	memrcol3329	1.569831e+00
	memrrow3329	1.604286e+00
	memrcol3328	1.610942e+00
	memrrow3328	1.647762e+00
	memrcol3327	1.655605e+00
	memrrow3327	1.694920e+00
	memrcol3326	1.704076e+00
	memrrow3326	1.746010e+00
	memrcol3325	1.756624e+00
	memrrow3325	1.801294e+00
	memrcol3324	1.813533e+00
	memrrow3324	1.861044e+00
	memrcol3323	1.875102e+00
	memrrow3323	1.925545e+00
	memrcol3322	1.941642e+00
	memrrow3322	1.995091e+00
	memrcol3321	2.013477e+00
	memrrow3321	2.069982e+00
	memrcol3320	2.091126e+00
	memrrow3320	2.150523e+00
	memrcol3319	2.174068e+00
	memrrow3319	2.237003e+00
	memrcol3318	2.263881e+00
	memrrow3318	2.329778e+00
	memrcol3317	2.360478e+00
	memrrow3317	2.429142e+00
	memrcol3316	2.464189e+00
	memrrow3316	2.535372e+00
	memrcol3315	2.575322e+00
	memrrow3315	2.648721e+00
	memrcol3314	2.694164e+00
	memrrow3314	2.769409e+00
	memrcol3313	2.820974e+00
	memrrow3313	2.897622e+00
	memrcol3312	2.955975e+00
	memrrow3312	3.033500e+00
	memrcol3311	3.099352e+00
	memrrow3311	3.177130e+00
	memrcol3310	3.251754e+00
	memrrow3310	3.328538e+00
	memrcol3250	1.286043e+00
	memrrow3250	1.298032e+00
	memrcol3249	1.286897e+00
	memrrow3249	1.299231e+00
	memrcol3248	1.289089e+00
	memrrow3248	1.301663e+00
	memrcol3247	1.292461e+00
	memrrow3247	1.305352e+00
	memrcol3246	1.297047e+00
	memrrow3246	1.310331e+00
	memrcol3245	1.302890e+00
	memrrow3245	1.316638e+00
	memrcol3244	1.310034e+00
	memrrow3244	1.324320e+00
	memrcol3243	1.318533e+00
	memrrow3243	1.333431e+00
	memrcol3242	1.328443e+00
	memrrow3242	1.344031e+00
	memrcol3241	1.339830e+00
	memrrow3241	1.356190e+00
	memrcol3240	1.352961e+00
	memrrow3240	1.369985e+00
	memrcol3239	1.367232e+00
	memrrow3239	1.385483e+00
	memrcol3238	1.383428e+00
	memrrow3238	1.402806e+00
	memrcol3237	1.401465e+00
	memrrow3237	1.422066e+00
	memrcol3236	1.421463e+00
	memrrow3236	1.443387e+00
	memrcol3235	1.443550e+00
	memrrow3235	1.466899e+00
	memrcol3234	1.467865e+00
	memrrow3234	1.492747e+00
	memrcol3233	1.494557e+00
	memrrow3233	1.521083e+00
	memrcol3232	1.523784e+00
	memrrow3232	1.552072e+00
	memrcol3231	1.555718e+00
	memrrow3231	1.585890e+00
	memrcol3230	1.590749e+00
	memrrow3230	1.622724e+00
	memrcol3229	1.628353e+00
	memrrow3229	1.662757e+00
	memrcol3228	1.669476e+00
	memrrow3228	1.706229e+00
	memrcol3227	1.714152e+00
	memrrow3227	1.753377e+00
	memrcol3226	1.762636e+00
	memrrow3226	1.804448e+00
	memrcol3225	1.815197e+00
	memrrow3225	1.859699e+00
	memrcol3224	1.872116e+00
	memrrow3224	1.919401e+00
	memrcol3223	1.933688e+00
	memrrow3223	1.983832e+00
	memrcol3222	2.000220e+00
	memrrow3222	2.053276e+00
	memrcol3221	2.072030e+00
	memrrow3221	2.128027e+00
	memrcol3220	2.149697e+00
	memrrow3220	2.208377e+00
	memrcol3219	2.232372e+00
	memrrow3219	2.294595e+00
	memrcol3218	2.322067e+00
	memrrow3218	2.387035e+00
	memrcol3217	2.418515e+00
	memrrow3217	2.485973e+00
	memrcol3216	2.522021e+00
	memrrow3216	2.591655e+00
	memrcol3215	2.632859e+00
	memrrow3215	2.704302e+00
	memrcol3214	2.751276e+00
	memrrow3214	2.824092e+00
	memrcol3213	2.877479e+00
	memrrow3213	2.951165e+00
	memrcol3212	3.011635e+00
	memrrow3212	3.085605e+00
	memrcol3211	3.153858e+00
	memrrow3211	3.227443e+00
	memrcol3210	3.304915e+00
	memrrow3210	3.376639e+00
	memrcol3150	1.343497e+00
	memrrow3150	1.355267e+00
	memrcol3149	1.344238e+00
	memrrow3149	1.356444e+00
	memrcol3148	1.346375e+00
	memrrow3148	1.358842e+00
	memrcol3147	1.349685e+00
	memrrow3147	1.362486e+00
	memrcol3146	1.354204e+00
	memrrow3146	1.367410e+00
	memrcol3145	1.359975e+00
	memrrow3145	1.373655e+00
	memrcol3144	1.367046e+00
	memrrow3144	1.381268e+00
	memrcol3143	1.375469e+00
	memrrow3143	1.390303e+00
	memrcol3142	1.385302e+00
	memrrow3142	1.400821e+00
	memrcol3141	1.396608e+00
	memrrow3141	1.412892e+00
	memrcol3140	1.409726e+00
	memrrow3140	1.426591e+00
	memrcol3139	1.423802e+00
	memrrow3139	1.441976e+00
	memrcol3138	1.439871e+00
	memrrow3138	1.459178e+00
	memrcol3137	1.457778e+00
	memrrow3137	1.478312e+00
	memrcol3136	1.477642e+00
	memrrow3136	1.499499e+00
	memrcol3135	1.499593e+00
	memrrow3135	1.522871e+00
	memrcol3134	1.523770e+00
	memrrow3134	1.548571e+00
	memrcol3133	1.550319e+00
	memrrow3133	1.576751e+00
	memrcol3132	1.579398e+00
	memrrow3132	1.607575e+00
	memrcol3131	1.611177e+00
	memrrow3131	1.641216e+00
	memrcol3130	1.646118e+00
	memrrow3130	1.677861e+00
	memrcol3129	1.683434e+00
	memrrow3129	1.717680e+00
	memrcol3128	1.724334e+00
	memrrow3128	1.760924e+00
	memrcol3127	1.768776e+00
	memrrow3127	1.807827e+00
	memrcol3126	1.817016e+00
	memrrow3126	1.858635e+00
	memrcol3125	1.869320e+00
	memrrow3125	1.913605e+00
	memrcol3124	1.925971e+00
	memrrow3124	1.973004e+00
	memrcol3123	1.987260e+00
	memrrow3123	2.037106e+00
	memrcol3122	2.053493e+00
	memrrow3122	2.106192e+00
	memrcol3121	2.124983e+00
	memrrow3121	2.180548e+00
	memrcol3120	2.202399e+00
	memrrow3120	2.260461e+00
	memrcol3119	2.284455e+00
	memrrow3119	2.346180e+00
	memrcol3118	2.373756e+00
	memrrow3118	2.438072e+00
	memrcol3117	2.469807e+00
	memrrow3117	2.536395e+00
	memrcol3116	2.572889e+00
	memrrow3116	2.641377e+00
	memrcol3115	2.683253e+00
	memrrow3115	2.753207e+00
	memrcol3114	2.801107e+00
	memrrow3114	2.872033e+00
	memrcol3113	2.926616e+00
	memrrow3113	2.997952e+00
	memrcol3112	3.059897e+00
	memrrow3112	3.131005e+00
	memrcol3111	3.201006e+00
	memrrow3111	3.271168e+00
	memrcol3110	3.350903e+00
	memrrow3110	3.418347e+00
	memrcol3050	1.399773e+00
	memrrow3050	1.411201e+00
	memrcol3049	1.400358e+00
	memrrow3049	1.412344e+00
	memrcol3048	1.402415e+00
	memrrow3048	1.414686e+00
	memrcol3047	1.405629e+00
	memrrow3047	1.418254e+00
	memrcol3046	1.410040e+00
	memrrow3046	1.423086e+00
	memrcol3045	1.415693e+00
	memrrow3045	1.429221e+00
	memrcol3044	1.422636e+00
	memrrow3044	1.436710e+00
	memrcol3043	1.430922e+00
	memrrow3043	1.445605e+00
	memrcol3042	1.440608e+00
	memrrow3042	1.455970e+00
	memrcol3041	1.451757e+00
	memrrow3041	1.467870e+00
	memrcol3040	1.464804e+00
	memrrow3040	1.481382e+00
	memrcol3039	1.478554e+00
	memrrow3039	1.496551e+00
	memrcol3038	1.494383e+00
	memrrow3038	1.513520e+00
	memrcol3037	1.512037e+00
	memrrow3037	1.532403e+00
	memrcol3036	1.531636e+00
	memrrow3036	1.553322e+00
	memrcol3035	1.553310e+00
	memrrow3035	1.576410e+00
	memrcol3034	1.577195e+00
	memrrow3034	1.601808e+00
	memrcol3033	1.603438e+00
	memrrow3033	1.629667e+00
	memrcol3032	1.632195e+00
	memrrow3032	1.660149e+00
	memrcol3031	1.663631e+00
	memrrow3031	1.693426e+00
	memrcol3030	1.698313e+00
	memrrow3030	1.729683e+00
	memrcol3029	1.735091e+00
	memrrow3029	1.769077e+00
	memrcol3028	1.775534e+00
	memrrow3028	1.811869e+00
	memrcol3027	1.819496e+00
	memrrow3027	1.858295e+00
	memrcol3026	1.867233e+00
	memrrow3026	1.908601e+00
	memrcol3025	1.919015e+00
	memrrow3025	1.963044e+00
	memrcol3024	1.975122e+00
	memrrow3024	2.021890e+00
	memrcol3023	2.035848e+00
	memrrow3023	2.085412e+00
	memrcol3022	2.101496e+00
	memrrow3022	2.153891e+00
	memrcol3021	2.172379e+00
	memrrow3021	2.227609e+00
	memrcol3020	2.249296e+00
	memrrow3020	2.306851e+00
	memrcol3019	2.330364e+00
	memrrow3019	2.391848e+00
	memrcol3018	2.419013e+00
	memrrow3018	2.482993e+00
	memrcol3017	2.514439e+00
	memrrow3017	2.580536e+00
	memrcol3016	2.616909e+00
	memrrow3016	2.684689e+00
	memrcol3015	2.726651e+00
	memrrow3015	2.795620e+00
	memrcol3014	2.843844e+00
	memrrow3014	2.913448e+00
	memrcol3013	2.968620e+00
	memrrow3013	3.038236e+00
	memrcol3012	3.101049e+00
	memrrow3012	3.169985e+00
	memrcol3011	3.241138e+00
	memrrow3011	3.308629e+00
	memrcol3010	3.390146e+00
	memrrow3010	3.454021e+00
	memrcol309	3.544811e+00
	memrrow309	3.605801e+00
	memrcol308	3.706179e+00
	memrrow308	3.763680e+00
	memrcol307	3.873997e+00
	memrrow307	3.927308e+00
	memrcol306	4.047955e+00
	memrrow306	4.096268e+00
	memrcol305	4.227677e+00
	memrrow305	4.270060e+00
	memrcol304	4.412702e+00
	memrrow304	4.448089e+00
	memrcol303	4.602463e+00
	memrrow303	4.629657e+00
	memrcol302	4.796271e+00
	memrrow302	4.813945e+00
	memrcol301	4.993289e+00
	memrcol2950	1.454906e+00
	memrrow2950	1.465859e+00
	memrcol2949	1.455280e+00
	memrrow2949	1.466954e+00
	memrcol2948	1.457228e+00
	memrrow2948	1.469216e+00
	memrcol2947	1.460311e+00
	memrrow2947	1.472678e+00
	memrcol2946	1.464572e+00
	memrrow2946	1.477376e+00
	memrcol2945	1.470058e+00
	memrrow2945	1.483355e+00
	memrcol2944	1.476818e+00
	memrrow2944	1.490663e+00
	memrcol2943	1.484906e+00
	memrrow2943	1.499356e+00
	memrcol2942	1.494378e+00
	memrrow2942	1.509494e+00
	memrcol2941	1.505295e+00
	memrrow2941	1.521144e+00
	memrcol2940	1.518225e+00
	memrrow2940	1.534378e+00
	memrcol2939	1.531507e+00
	memrrow2939	1.549228e+00
	memrcol2938	1.546982e+00
	memrrow2938	1.565850e+00
	memrcol2937	1.564260e+00
	memrrow2937	1.584358e+00
	memrcol2936	1.583461e+00
	memrrow2936	1.604876e+00
	memrcol2935	1.604716e+00
	memrrow2935	1.627536e+00
	memrcol2934	1.628159e+00
	memrrow2934	1.652478e+00
	memrcol2933	1.653934e+00
	memrrow2933	1.679852e+00
	memrcol2932	1.682196e+00
	memrrow2932	1.709818e+00
	memrcol2931	1.713106e+00
	memrrow2931	1.742545e+00
	memrcol2930	1.747371e+00
	memrrow2930	1.778217e+00
	memrcol2929	1.783349e+00
	memrrow2929	1.816974e+00
	memrcol2928	1.823099e+00
	memrrow2928	1.859092e+00
	memrcol2927	1.866335e+00
	memrrow2927	1.904810e+00
	memrcol2926	1.913314e+00
	memrrow2926	1.954376e+00
	memrcol2925	1.964307e+00
	memrrow2925	2.008048e+00
	memrcol2924	2.019597e+00
	memrrow2924	2.066094e+00
	memrcol2923	2.079479e+00
	memrrow2923	2.128790e+00
	memrcol2922	2.144259e+00
	memrrow2922	2.196416e+00
	memrcol2921	2.214253e+00
	memrrow2921	2.269259e+00
	memrcol2920	2.290437e+00
	memrrow2920	2.347602e+00
	memrcol2919	2.370125e+00
	memrrow2919	2.431661e+00
	memrcol2918	2.457873e+00
	memrrow2918	2.521874e+00
	memrcol2917	2.552462e+00
	memrrow2917	2.618487e+00
	memrcol2916	2.654151e+00
	memrrow2916	2.721703e+00
	memrcol2915	2.763151e+00
	memrrow2915	2.831674e+00
	memrcol2914	2.879621e+00
	memrrow2914	2.948497e+00
	memrcol2913	3.003662e+00
	memrrow2913	3.072207e+00
	memrcol2912	3.135308e+00
	memrrow2912	3.202773e+00
	memrcol2911	3.274521e+00
	memrrow2911	3.340084e+00
	memrcol2910	3.423002e+00
	memrrow2910	3.483952e+00
	memrcol299	3.576307e+00
	memrrow299	3.633915e+00
	memrcol298	3.735887e+00
	memrrow298	3.789639e+00
	memrcol297	3.901431e+00
	memrrow297	3.950738e+00
	memrcol296	4.072586e+00
	memrrow296	4.116768e+00
	memrcol295	4.248938e+00
	memrrow295	4.287216e+00
	memrcol294	4.429998e+00
	memrrow294	4.461491e+00
	memrcol293	4.615189e+00
	memrrow293	4.638916e+00
	memrcol292	4.803827e+00
	memrrow292	4.818714e+00
	memrcol291	4.995102e+00
	memrcol2850	1.508944e+00
	memrrow2850	1.519271e+00
	memrcol2849	1.509034e+00
	memrrow2849	1.520304e+00
	memrcol2848	1.510842e+00
	memrrow2848	1.522463e+00
	memrcol2847	1.513756e+00
	memrrow2847	1.525785e+00
	memrcol2846	1.517823e+00
	memrrow2846	1.530310e+00
	memrcol2845	1.523093e+00
	memrrow2845	1.536083e+00
	memrcol2844	1.529616e+00
	memrrow2844	1.543156e+00
	memrcol2843	1.537446e+00
	memrrow2843	1.551582e+00
	memrcol2842	1.546637e+00
	memrrow2842	1.561423e+00
	memrcol2841	1.557248e+00
	memrrow2841	1.572741e+00
	memrcol2840	1.570030e+00
	memrrow2840	1.585609e+00
	memrcol2839	1.582688e+00
	memrrow2839	1.600035e+00
	memrcol2838	1.597694e+00
	memrrow2838	1.616196e+00
	memrcol2837	1.614472e+00
	memrrow2837	1.634207e+00
	memrcol2836	1.633145e+00
	memrrow2836	1.654191e+00
	memrcol2835	1.653840e+00
	memrrow2835	1.676281e+00
	memrcol2834	1.676691e+00
	memrrow2834	1.700614e+00
	memrcol2833	1.701839e+00
	memrrow2833	1.727339e+00
	memrcol2832	1.729435e+00
	memrrow2832	1.756615e+00
	memrcol2831	1.759637e+00
	memrrow2831	1.788608e+00
	memrcol2830	1.793344e+00
	memrrow2830	1.823499e+00
	memrcol2829	1.828245e+00
	memrrow2829	1.861405e+00
	memrcol2828	1.867066e+00
	memrrow2828	1.902627e+00
	memrcol2827	1.909327e+00
	memrrow2827	1.947406e+00
	memrcol2826	1.955289e+00
	memrrow2826	1.995992e+00
	memrcol2825	2.005225e+00
	memrrow2825	2.048648e+00
	memrcol2824	2.059422e+00
	memrrow2824	2.105647e+00
	memrcol2823	2.118179e+00
	memrrow2823	2.167268e+00
	memrcol2822	2.181807e+00
	memrrow2822	2.233799e+00
	memrcol2821	2.250626e+00
	memrrow2821	2.305528e+00
	memrcol2820	2.325861e+00
	memrrow2820	2.382748e+00
	memrcol2819	2.403733e+00
	memrrow2819	2.465656e+00
	memrcol2818	2.490332e+00
	memrrow2818	2.554757e+00
	memrcol2817	2.583882e+00
	memrrow2817	2.650300e+00
	memrcol2816	2.684638e+00
	memrrow2816	2.752485e+00
	memrcol2815	2.792800e+00
	memrrow2815	2.861455e+00
	memrcol2814	2.908511e+00
	memrrow2814	2.977290e+00
	memrcol2813	3.031849e+00
	memrrow2813	3.100003e+00
	memrcol2812	3.162819e+00
	memrrow2812	3.229531e+00
	memrcol2811	3.301347e+00
	memrrow2811	3.365731e+00
	memrcol2810	3.449763e+00
	memrrow2810	3.508369e+00
	memrcol289	3.602043e+00
	memrrow289	3.656868e+00
	memrcol288	3.760218e+00
	memrrow288	3.810849e+00
	memrcol287	3.923935e+00
	memrrow287	3.969893e+00
	memrcol286	4.092800e+00
	memrrow286	4.133533e+00
	memrcol285	4.266371e+00
	memrrow285	4.301247e+00
	memrcol284	4.444145e+00
	memrrow284	4.472448e+00
	memrcol283	4.625542e+00
	memrrow283	4.646479e+00
	memrcol282	4.809894e+00
	memrrow282	4.822604e+00
	memrcol281	4.996425e+00
	memrcol2750	1.561949e+00
	memrrow2750	1.571482e+00
	memrcol2749	1.561661e+00
	memrrow2749	1.572435e+00
	memrcol2748	1.563294e+00
	memrrow2748	1.574466e+00
	memrcol2747	1.565998e+00
	memrrow2747	1.577614e+00
	memrcol2746	1.569826e+00
	memrrow2746	1.581923e+00
	memrcol2745	1.574829e+00
	memrrow2745	1.587443e+00
	memrcol2744	1.581060e+00
	memrrow2744	1.594223e+00
	memrcol2743	1.588572e+00
	memrrow2743	1.602320e+00
	memrcol2742	1.597417e+00
	memrrow2742	1.611792e+00
	memrcol2741	1.607651e+00
	memrrow2741	1.622701e+00
	memrcol2740	1.620277e+00
	memrrow2740	1.635115e+00
	memrcol2739	1.632134e+00
	memrrow2739	1.649013e+00
	memrcol2738	1.646555e+00
	memrrow2738	1.664599e+00
	memrcol2737	1.662712e+00
	memrrow2737	1.681989e+00
	memrcol2736	1.680724e+00
	memrrow2736	1.701307e+00
	memrcol2735	1.700720e+00
	memrrow2735	1.722683e+00
	memrcol2734	1.722830e+00
	memrrow2734	1.746255e+00
	memrcol2733	1.747194e+00
	memrrow2733	1.772170e+00
	memrcol2732	1.773956e+00
	memrrow2732	1.800583e+00
	memrcol2731	1.803271e+00
	memrrow2731	1.831658e+00
	memrcol2730	1.836302e+00
	memrrow2730	1.865572e+00
	memrcol2729	1.869824e+00
	memrrow2729	1.902413e+00
	memrcol2728	1.907476e+00
	memrrow2728	1.942513e+00
	memrcol2727	1.948511e+00
	memrrow2727	1.986117e+00
	memrcol2726	1.993193e+00
	memrrow2726	2.033481e+00
	memrcol2725	2.041800e+00
	memrrow2725	2.084875e+00
	memrcol2724	2.094624e+00
	memrrow2724	2.140575e+00
	memrcol2723	2.151970e+00
	memrrow2723	2.200871e+00
	memrcol2722	2.214155e+00
	memrrow2722	2.266057e+00
	memrcol2721	2.281509e+00
	memrrow2721	2.336433e+00
	memrcol2720	2.355596e+00
	memrrow2720	2.412301e+00
	memrcol2719	2.431148e+00
	memrrow2719	2.493840e+00
	memrcol2718	2.516349e+00
	memrrow2718	2.581648e+00
	memrcol2717	2.608661e+00
	memrrow2717	2.675986e+00
	memrcol2716	2.708340e+00
	memrrow2716	2.777056e+00
	memrcol2715	2.815583e+00
	memrrow2715	2.884998e+00
	memrcol2714	2.930523e+00
	memrrow2714	2.999882e+00
	memrcol2713	3.053221e+00
	memrrow2713	3.121701e+00
	memrcol2712	3.183660e+00
	memrrow2712	3.250368e+00
	memrcol2711	3.321735e+00
	memrrow2711	3.385706e+00
	memrcol2710	3.470664e+00
	memrrow2710	3.527442e+00
	memrcol279	3.622295e+00
	memrrow279	3.674855e+00
	memrcol278	3.779487e+00
	memrrow278	3.827524e+00
	memrcol277	3.941843e+00
	memrrow277	3.984996e+00
	memrcol276	4.108940e+00
	memrrow276	4.146785e+00
	memrcol275	4.280316e+00
	memrrow275	4.312357e+00
	memrcol274	4.455461e+00
	memrrow274	4.481134e+00
	memrcol273	4.633802e+00
	memrrow273	4.652477e+00
	memrcol272	4.814690e+00
	memrrow272	4.825689e+00
	memrcol271	4.997391e+00
	memrcol2650	1.614001e+00
	memrrow2650	1.622545e+00
	memrcol2649	1.613211e+00
	memrrow2649	1.623399e+00
	memrcol2648	1.614628e+00
	memrrow2648	1.625273e+00
	memrcol2647	1.617078e+00
	memrrow2647	1.628210e+00
	memrcol2646	1.620618e+00
	memrrow2646	1.632261e+00
	memrcol2645	1.625304e+00
	memrrow2645	1.637477e+00
	memrcol2644	1.631188e+00
	memrrow2644	1.643909e+00
	memrcol2643	1.638323e+00
	memrrow2643	1.651614e+00
	memrcol2642	1.646760e+00
	memrrow2642	1.660648e+00
	memrcol2641	1.656550e+00
	memrrow2641	1.671070e+00
	memrcol2640	1.669040e+00
	memrrow2640	1.682945e+00
	memrcol2639	1.679892e+00
	memrrow2639	1.696210e+00
	memrcol2638	1.693613e+00
	memrrow2638	1.711106e+00
	memrcol2637	1.709023e+00
	memrrow2637	1.727752e+00
	memrcol2636	1.726245e+00
	memrrow2636	1.746271e+00
	memrcol2635	1.745403e+00
	memrrow2635	1.766793e+00
	memrcol2634	1.766627e+00
	memrrow2634	1.789453e+00
	memrcol2633	1.790050e+00
	memrrow2633	1.814397e+00
	memrcol2632	1.815814e+00
	memrrow2632	1.841774e+00
	memrcol2631	1.844066e+00
	memrrow2631	1.871748e+00
	memrcol2630	1.876332e+00
	memrrow2630	1.904490e+00
	memrcol2629	1.908145e+00
	memrrow2629	1.940048e+00
	memrcol2628	1.944383e+00
	memrrow2628	1.978796e+00
	memrcol2627	1.983934e+00
	memrrow2627	2.020985e+00
	memrcol2626	2.027068e+00
	memrrow2626	2.066880e+00
	memrcol2625	2.074068e+00
	memrrow2625	2.116755e+00
	memrcol2624	2.125232e+00
	memrrow2624	2.170899e+00
	memrcol2623	2.180871e+00
	memrrow2623	2.229610e+00
	memrcol2622	2.241313e+00
	memrrow2622	2.293195e+00
	memrcol2621	2.306900e+00
	memrrow2621	2.361969e+00
	memrcol2620	2.379662e+00
	memrrow2620	2.436249e+00
	memrcol2619	2.452295e+00
	memrrow2619	2.516187e+00
	memrcol2618	2.535836e+00
	memrrow2618	2.602515e+00
	memrcol2617	2.626707e+00
	memrrow2617	2.695511e+00
	memrcol2616	2.725170e+00
	memrrow2616	2.795388e+00
	memrcol2615	2.831425e+00
	memrrow2615	2.902286e+00
	memrcol2614	2.945599e+00
	memrrow2614	3.016270e+00
	memrcol2613	3.067745e+00
	memrrow2613	3.137321e+00
	memrcol2612	3.197829e+00
	memrrow2612	3.265330e+00
	memrcol2611	3.335726e+00
	memrrow2611	3.400089e+00
	memrcol2610	3.485886e+00
	memrrow2610	3.541284e+00
	memrcol269	3.637292e+00
	memrrow269	3.688019e+00
	memrcol268	3.793952e+00
	memrrow268	3.839827e+00
	memrcol267	3.955436e+00
	memrrow267	3.996222e+00
	memrcol266	4.121295e+00
	memrrow266	4.156696e+00
	memrcol265	4.291057e+00
	memrrow265	4.320710e+00
	memrcol264	4.464211e+00
	memrrow264	4.487690e+00
	memrcol263	4.640194e+00
	memrrow263	4.657017e+00
	memrcol262	4.818386e+00
	memrrow262	4.828026e+00
	memrcol261	4.998096e+00
	memrcol2550	1.665198e+00
	memrrow2550	1.672525e+00
	memrcol2549	1.663742e+00
	memrrow2549	1.673258e+00
	memrcol2548	1.664898e+00
	memrrow2548	1.674942e+00
	memrcol2547	1.667046e+00
	memrrow2547	1.677631e+00
	memrcol2546	1.670247e+00
	memrrow2546	1.681378e+00
	memrcol2545	1.674561e+00
	memrrow2545	1.686239e+00
	memrcol2544	1.680043e+00
	memrrow2544	1.692267e+00
	memrcol2543	1.686745e+00
	memrrow2543	1.699517e+00
	memrcol2542	1.694714e+00
	memrrow2542	1.708045e+00
	memrcol2541	1.703996e+00
	memrrow2541	1.717906e+00
	memrcol2540	1.716414e+00
	memrrow2540	1.729158e+00
	memrcol2539	1.726019e+00
	memrrow2539	1.741684e+00
	memrcol2538	1.738920e+00
	memrrow2538	1.755777e+00
	memrcol2537	1.753462e+00
	memrrow2537	1.771556e+00
	memrcol2536	1.769763e+00
	memrrow2536	1.789144e+00
	memrcol2535	1.787948e+00
	memrrow2535	1.808670e+00
	memrcol2534	1.808141e+00
	memrrow2534	1.830269e+00
	memrcol2533	1.830473e+00
	memrrow2533	1.854080e+00
	memrcol2532	1.855077e+00
	memrrow2532	1.880252e+00
	memrcol2531	1.882093e+00
	memrrow2531	1.908941e+00
	memrcol2530	1.913547e+00
	memrrow2530	1.940315e+00
	memrcol2529	1.943276e+00
	memrrow2529	1.974366e+00
	memrcol2528	1.977849e+00
	memrrow2528	2.011526e+00
	memrcol2527	2.015653e+00
	memrrow2527	2.052054e+00
	memrcol2526	2.056962e+00
	memrrow2526	2.096222e+00
	memrcol2525	2.102067e+00
	memrrow2525	2.144316e+00
	memrcol2524	2.151272e+00
	memrrow2524	2.196635e+00
	memrcol2523	2.204898e+00
	memrrow2523	2.253491e+00
	memrcol2522	2.263283e+00
	memrrow2522	2.315205e+00
	memrcol2521	2.326783e+00
	memrrow2521	2.382112e+00
	memrcol2520	2.398068e+00
	memrrow2520	2.454552e+00
	memrcol2519	2.467051e+00
	memrrow2519	2.532640e+00
	memrcol2518	2.548655e+00
	memrrow2518	2.617287e+00
	memrcol2517	2.637872e+00
	memrrow2517	2.708797e+00
	memrcol2516	2.734979e+00
	memrrow2516	2.807399e+00
	memrcol2515	2.840181e+00
	memrrow2515	2.913244e+00
	memrcol2514	2.953608e+00
	memrrow2514	3.026395e+00
	memrcol2513	3.075311e+00
	memrrow2513	3.146824e+00
	memrcol2512	3.205249e+00
	memrrow2512	3.274405e+00
	memrcol2511	3.343281e+00
	memrrow2511	3.408901e+00
	memrcol2510	3.495569e+00
	memrrow2510	3.549959e+00
	memrcol259	3.647216e+00
	memrrow259	3.696457e+00
	memrcol258	3.803830e+00
	memrrow258	3.847878e+00
	memrcol257	3.964950e+00
	memrrow257	4.003705e+00
	memrcol256	4.130111e+00
	memrrow256	4.163406e+00
	memrcol255	4.298833e+00
	memrrow255	4.326438e+00
	memrcol254	4.470612e+00
	memrrow254	4.492229e+00
	memrcol253	4.644904e+00
	memrrow253	4.660183e+00
	memrcol252	4.821119e+00
	memrrow252	4.829664e+00
	memrcol251	4.998610e+00
	memrcol2450	1.715663e+00
	memrrow2450	1.721499e+00
	memrcol2449	1.713321e+00
	memrrow2449	1.722083e+00
	memrcol2448	1.714164e+00
	memrrow2448	1.723542e+00
	memrcol2447	1.715954e+00
	memrrow2447	1.725940e+00
	memrcol2446	1.718762e+00
	memrrow2446	1.729336e+00
	memrcol2445	1.722651e+00
	memrrow2445	1.733790e+00
	memrcol2444	1.727676e+00
	memrrow2444	1.739357e+00
	memrcol2443	1.733890e+00
	memrrow2443	1.746093e+00
	memrcol2442	1.741335e+00
	memrrow2442	1.754049e+00
	memrcol2441	1.750052e+00
	memrrow2441	1.763276e+00
	memrcol2440	1.762512e+00
	memrrow2440	1.773826e+00
	memrcol2439	1.770578e+00
	memrrow2439	1.785507e+00
	memrcol2438	1.782543e+00
	memrrow2438	1.798681e+00
	memrcol2437	1.796091e+00
	memrrow2437	1.813469e+00
	memrcol2436	1.811343e+00
	memrrow2436	1.829995e+00
	memrcol2435	1.828420e+00
	memrrow2435	1.848385e+00
	memrcol2434	1.847443e+00
	memrrow2434	1.868773e+00
	memrcol2433	1.868534e+00
	memrrow2433	1.891293e+00
	memrcol2432	1.891821e+00
	memrrow2432	1.916089e+00
	memrcol2431	1.917435e+00
	memrrow2431	1.943312e+00
	memrcol2430	1.948085e+00
	memrrow2430	1.973122e+00
	memrcol2429	1.975297e+00
	memrrow2429	2.005436e+00
	memrcol2428	2.007946e+00
	memrrow2428	2.040764e+00
	memrcol2427	2.043731e+00
	memrrow2427	2.079374e+00
	memrcol2426	2.082930e+00
	memrrow2426	2.121549e+00
	memrcol2425	2.125841e+00
	memrrow2425	2.167585e+00
	memrcol2424	2.172776e+00
	memrrow2424	2.217795e+00
	memrcol2423	2.224066e+00
	memrrow2423	2.272507e+00
	memrcol2422	2.280061e+00
	memrrow2422	2.332064e+00
	memrcol2421	2.341134e+00
	memrrow2421	2.396820e+00
	memrcol2420	2.410826e+00
	memrrow2420	2.467146e+00
	memrcol2419	2.475250e+00
	memrrow2419	2.543103e+00
	memrcol2418	2.554611e+00
	memrrow2418	2.625846e+00
	memrcol2417	2.641945e+00
	memrrow2417	2.715712e+00
	memrcol2416	2.737546e+00
	memrrow2416	2.812955e+00
	memrcol2415	2.841630e+00
	memrrow2415	2.917738e+00
	memrcol2414	2.954338e+00
	memrrow2414	3.030133e+00
	memrcol2413	3.075726e+00
	memrrow2413	3.150107e+00
	memrcol2412	3.205753e+00
	memrrow2412	3.277519e+00
	memrcol2411	3.344274e+00
	memrrow2411	3.412107e+00
	memrcol2410	3.499813e+00
	memrrow2410	3.553479e+00
	memrcol2350	1.765544e+00
	memrrow2350	1.769555e+00
	memrcol2349	1.762024e+00
	memrrow2349	1.769956e+00
	memrcol2348	1.762492e+00
	memrrow2348	1.771150e+00
	memrcol2347	1.763864e+00
	memrrow2347	1.773211e+00
	memrcol2346	1.766220e+00
	memrrow2346	1.776205e+00
	memrcol2345	1.769627e+00
	memrrow2345	1.780199e+00
	memrcol2344	1.774142e+00
	memrrow2344	1.785249e+00
	memrcol2343	1.779814e+00
	memrrow2343	1.791410e+00
	memrcol2342	1.786684e+00
	memrrow2342	1.798731e+00
	memrcol2341	1.794785e+00
	memrrow2341	1.807257e+00
	memrcol2340	1.807479e+00
	memrrow2340	1.817029e+00
	memrcol2339	1.813645e+00
	memrrow2339	1.827757e+00
	memrcol2338	1.824551e+00
	memrrow2338	1.839896e+00
	memrcol2337	1.836982e+00
	memrrow2337	1.853570e+00
	memrcol2336	1.851058e+00
	memrrow2336	1.868902e+00
	memrcol2335	1.866896e+00
	memrrow2335	1.886018e+00
	memrcol2334	1.884611e+00
	memrrow2334	1.905047e+00
	memrcol2333	1.904320e+00
	memrrow2333	1.926119e+00
	memrcol2332	1.926139e+00
	memrrow2332	1.949371e+00
	memrcol2331	1.950190e+00
	memrrow2331	1.974946e+00
	memrcol2330	1.980119e+00
	memrrow2330	2.002997e+00
	memrcol2329	2.004305e+00
	memrrow2329	2.033336e+00
	memrcol2328	2.034762e+00
	memrrow2328	2.066578e+00
	memrcol2327	2.068244e+00
	memrrow2327	2.103002e+00
	memrcol2326	2.105037e+00
	memrrow2326	2.142901e+00
	memrcol2325	2.145441e+00
	memrrow2325	2.186586e+00
	memrcol2324	2.189779e+00
	memrrow2324	2.234386e+00
	memrcol2323	2.238389e+00
	memrrow2323	2.286647e+00
	memrcol2322	2.291639e+00
	memrrow2322	2.343734e+00
	memrcol2321	2.349916e+00
	memrrow2321	2.406030e+00
	memrcol2320	2.417952e+00
	memrrow2320	2.473938e+00
	memrcol2319	2.476662e+00
	memrrow2319	2.547444e+00
	memrcol2318	2.553444e+00
	memrrow2318	2.628028e+00
	memrcol2317	2.638642e+00
	memrrow2317	2.716071e+00
	memrcol2316	2.732571e+00
	memrrow2316	2.811857e+00
	memrcol2315	2.835469e+00
	memrrow2315	2.915571e+00
	memrcol2314	2.947489e+00
	memrrow2314	3.027295e+00
	memrcol2313	3.068703e+00
	memrrow2313	3.147000e+00
	memrcol2312	3.199081e+00
	memrrow2312	3.274535e+00
	memrcol2311	3.338483e+00
	memrrow2311	3.409615e+00
	memrcol2310	3.498690e+00
	memrrow2310	3.551808e+00
	memrcol2250	1.815024e+00
	memrrow2250	1.816795e+00
	memrcol2249	1.809935e+00
	memrrow2249	1.816972e+00
	memrcol2248	1.809953e+00
	memrrow2248	1.817853e+00
	memrcol2247	1.810840e+00
	memrrow2247	1.819524e+00
	memrcol2246	1.812680e+00
	memrrow2246	1.822063e+00
	memrcol2245	1.815545e+00
	memrrow2245	1.825541e+00
	memrcol2244	1.819496e+00
	memrrow2244	1.830018e+00
	memrcol2243	1.824579e+00
	memrrow2243	1.835547e+00
	memrcol2242	1.830829e+00
	memrrow2242	1.842174e+00
	memrcol2241	1.838271e+00
	memrrow2241	1.849934e+00
	memrcol2240	1.851491e+00
	memrrow2240	1.858861e+00
	memrcol2239	1.855301e+00
	memrrow2239	1.868525e+00
	memrcol2238	1.865025e+00
	memrrow2238	1.879512e+00
	memrcol2237	1.876215e+00
	memrrow2237	1.891947e+00
	memrcol2236	1.888989e+00
	memrrow2236	1.905955e+00
	memrcol2235	1.903460e+00
	memrrow2235	1.921660e+00
	memrcol2234	1.919737e+00
	memrrow2234	1.939185e+00
	memrcol2233	1.937926e+00
	memrrow2233	1.958655e+00
	memrcol2232	1.958134e+00
	memrrow2232	1.980197e+00
	memrcol2231	1.980469e+00
	memrrow2231	2.003946e+00
	memrcol2230	2.009866e+00
	memrrow2230	2.030043e+00
	memrcol2229	2.030409e+00
	memrrow2229	2.058157e+00
	memrcol2228	2.058397e+00
	memrrow2228	2.089047e+00
	memrcol2227	2.089283e+00
	memrrow2227	2.123001e+00
	memrcol2226	2.123357e+00
	memrrow2226	2.160327e+00
	memrcol2225	2.160927e+00
	memrrow2225	2.201350e+00
	memrcol2224	2.202320e+00
	memrrow2224	2.246416e+00
	memrcol2223	2.247887e+00
	memrrow2223	2.295891e+00
	memrcol2222	2.298007e+00
	memrrow2222	2.350166e+00
	memrcol2221	2.353087e+00
	memrrow2221	2.409658e+00
	memrcol2220	2.419480e+00
	memrrow2220	2.474806e+00
	memrcol2219	2.470997e+00
	memrrow2219	2.545487e+00
	memrcol2218	2.544818e+00
	memrrow2218	2.623617e+00
	memrcol2217	2.627596e+00
	memrrow2217	2.709627e+00
	memrcol2216	2.719669e+00
	memrrow2216	2.803840e+00
	memrcol2215	2.821297e+00
	memrrow2215	2.906470e+00
	memrcol2214	2.932660e+00
	memrrow2214	3.017618e+00
	memrcol2213	3.053850e+00
	memrrow2213	3.137262e+00
	memrcol2212	3.184863e+00
	memrrow2212	3.265246e+00
	memrcol2211	3.325580e+00
	memrrow2211	3.401269e+00
	memrcol2210	3.492255e+00
	memrrow2210	3.544861e+00
	memrcol2150	1.864327e+00
	memrrow2150	1.863336e+00
	memrcol2149	1.857141e+00
	memrrow2149	1.863237e+00
	memrcol2148	1.856625e+00
	memrrow2148	1.863747e+00
	memrcol2147	1.856947e+00
	memrrow2147	1.864970e+00
	memrcol2146	1.858201e+00
	memrrow2146	1.866994e+00
	memrcol2145	1.860464e+00
	memrrow2145	1.869899e+00
	memrcol2144	1.863798e+00
	memrrow2144	1.873746e+00
	memrcol2143	1.868246e+00
	memrrow2143	1.878589e+00
	memrcol2142	1.873839e+00
	memrrow2142	1.884466e+00
	memrcol2141	1.880591e+00
	memrrow2141	1.891405e+00
	memrcol2140	1.894767e+00
	memrrow2140	1.899426e+00
	memrcol2139	1.895634e+00
	memrrow2139	1.907913e+00
	memrcol2138	1.904050e+00
	memrrow2138	1.917628e+00
	memrcol2137	1.913874e+00
	memrrow2137	1.928700e+00
	memrcol2136	1.925223e+00
	memrrow2136	1.941255e+00
	memrcol2135	1.938204e+00
	memrrow2135	1.955413e+00
	memrcol2134	1.952917e+00
	memrrow2134	1.971292e+00
	memrcol2133	1.969459e+00
	memrrow2133	1.989009e+00
	memrcol2132	1.987923e+00
	memrrow2132	2.008681e+00
	memrcol2131	2.008400e+00
	memrrow2131	2.030428e+00
	memrcol2130	2.037594e+00
	memrrow2130	2.054379e+00
	memrcol2129	2.053738e+00
	memrrow2129	2.080007e+00
	memrcol2128	2.078966e+00
	memrrow2128	2.108263e+00
	memrcol2127	2.106949e+00
	memrrow2127	2.139448e+00
	memrcol2126	2.137980e+00
	memrrow2126	2.173884e+00
	memrcol2125	2.172370e+00
	memrrow2125	2.211910e+00
	memrcol2124	2.210452e+00
	memrrow2124	2.253889e+00
	memrcol2123	2.252585e+00
	memrrow2123	2.300213e+00
	memrcol2122	2.299159e+00
	memrrow2122	2.351299e+00
	memrcol2121	2.350600e+00
	memrrow2121	2.407599e+00
	memrcol2120	2.415475e+00
	memrrow2120	2.469599e+00
	memrcol2119	2.457882e+00
	memrrow2119	2.537012e+00
	memrcol2118	2.528312e+00
	memrrow2118	2.612338e+00
	memrcol2117	2.608346e+00
	memrrow2117	2.696066e+00
	memrcol2116	2.698349e+00
	memrrow2116	2.788566e+00
	memrcol2115	2.798608e+00
	memrrow2115	2.890088e+00
	memrcol2114	2.909334e+00
	memrrow2114	3.000758e+00
	memrcol2113	3.030656e+00
	memrrow2113	3.120570e+00
	memrcol2112	3.162606e+00
	memrrow2112	3.249374e+00
	memrcol2111	3.305107e+00
	memrrow2111	3.386854e+00
	memrcol2110	3.480559e+00
	memrrow2110	3.532509e+00
	memrcol2050	1.913729e+00
	memrrow2050	1.909309e+00
	memrcol2049	1.903737e+00
	memrrow2049	1.908867e+00
	memrcol2048	1.902585e+00
	memrrow2048	1.908938e+00
	memrcol2047	1.902252e+00
	memrrow2047	1.909644e+00
	memrcol2046	1.902843e+00
	memrrow2046	1.911090e+00
	memrcol2045	1.904440e+00
	memrrow2045	1.913360e+00
	memrcol2044	1.907105e+00
	memrrow2044	1.916523e+00
	memrcol2043	1.910880e+00
	memrrow2043	1.920627e+00
	memrcol2042	1.915787e+00
	memrrow2042	1.925705e+00
	memrcol2041	1.921829e+00
	memrrow2041	1.931776e+00
	memrcol2040	1.937576e+00
	memrrow2040	1.938841e+00
	memrcol2039	1.934740e+00
	memrrow2039	1.946033e+00
	memrcol2038	1.941717e+00
	memrrow2038	1.954354e+00
	memrcol2037	1.950051e+00
	memrrow2037	1.963939e+00
	memrcol2036	1.959854e+00
	memrrow2036	1.974912e+00
	memrcol2035	1.971226e+00
	memrrow2035	1.987391e+00
	memrcol2034	1.984259e+00
	memrrow2034	2.001487e+00
	memrcol2033	1.999037e+00
	memrrow2033	2.017306e+00
	memrcol2032	2.015635e+00
	memrrow2032	2.034951e+00
	memrcol2031	2.034129e+00
	memrrow2031	2.054528e+00
	memrcol2030	2.063644e+00
	memrrow2030	2.076145e+00
	memrcol2029	2.074441e+00
	memrrow2029	2.099012e+00
	memrcol2028	2.096606e+00
	memrrow2028	2.124337e+00
	memrcol2027	2.121365e+00
	memrrow2027	2.152434e+00
	memrcol2026	2.149012e+00
	memrrow2026	2.183638e+00
	memrcol2025	2.179859e+00
	memrrow2025	2.218305e+00
	memrcol2024	2.214240e+00
	memrrow2024	2.256816e+00
	memrcol2023	2.252520e+00
	memrrow2023	2.299586e+00
	memrcol2022	2.295096e+00
	memrrow2022	2.347061e+00
	memrcol2021	2.342414e+00
	memrrow2021	2.399733e+00
	memrcol2020	2.406058e+00
	memrrow2020	2.458137e+00
	memrcol2019	2.436855e+00
	memrrow2019	2.521749e+00
	memrcol2018	2.503403e+00
	memrrow2018	2.593851e+00
	memrcol2017	2.580324e+00
	memrrow2017	2.674997e+00
	memrcol2016	2.668007e+00
	memrrow2016	2.765610e+00
	memrcol2015	2.766771e+00
	memrrow2015	2.865984e+00
	memrcol2014	2.876866e+00
	memrrow2014	2.976279e+00
	memrcol2013	2.998471e+00
	memrrow2013	3.096515e+00
	memrcol2012	3.131674e+00
	memrrow2012	3.226555e+00
	memrcol2011	3.276459e+00
	memrrow2011	3.366084e+00
	memrcol2010	3.463669e+00
	memrrow2010	3.514575e+00
	memrcol209	3.625339e+00
	memrrow209	3.668157e+00
	memrcol208	3.790241e+00
	memrrow208	3.826021e+00
	memrcol207	3.957892e+00
	memrrow207	3.987463e+00
	memrcol206	4.127868e+00
	memrrow206	4.151862e+00
	memrcol205	4.299783e+00
	memrrow205	4.318660e+00
	memrcol204	4.473277e+00
	memrrow204	4.487346e+00
	memrcol203	4.647998e+00
	memrrow203	4.657438e+00
	memrcol202	4.823597e+00
	memrrow202	4.828475e+00
	memrcol201	4.999712e+00
	memrcol1950	1.963573e+00
	memrrow1950	1.954866e+00
	memrcol1949	1.949821e+00
	memrrow1949	1.953995e+00
	memrcol1948	1.947910e+00
	memrrow1948	1.953542e+00
	memrcol1947	1.946817e+00
	memrrow1947	1.953652e+00
	memrcol1946	1.946660e+00
	memrrow1946	1.954445e+00
	memrcol1945	1.947523e+00
	memrrow1945	1.956018e+00
	memrcol1944	1.949471e+00
	memrrow1944	1.958439e+00
	memrcol1943	1.952539e+00
	memrrow1943	1.961757e+00
	memrcol1942	1.956742e+00
	memrrow1942	1.965997e+00
	memrcol1941	1.962073e+00
	memrrow1941	1.971163e+00
	memrcol1940	1.980258e+00
	memrrow1940	1.977237e+00
	memrcol1939	1.972716e+00
	memrrow1939	1.983010e+00
	memrcol1938	1.978121e+00
	memrrow1938	1.989812e+00
	memrcol1937	1.984840e+00
	memrrow1937	1.997783e+00
	memrcol1936	1.992979e+00
	memrrow1936	2.007048e+00
	memrcol1935	2.002633e+00
	memrrow1935	2.017720e+00
	memrcol1934	2.013879e+00
	memrrow1934	2.029901e+00
	memrcol1933	2.026788e+00
	memrrow1933	2.043684e+00
	memrcol1932	2.041416e+00
	memrrow1932	2.059157e+00
	memrcol1931	2.057817e+00
	memrrow1931	2.076404e+00
	memrcol1930	2.088445e+00
	memrrow1930	2.095510e+00
	memrcol1929	2.092686e+00
	memrrow1929	2.115322e+00
	memrcol1928	2.111472e+00
	memrrow1928	2.137397e+00
	memrcol1927	2.132674e+00
	memrrow1927	2.162065e+00
	memrcol1926	2.156582e+00
	memrrow1926	2.189672e+00
	memrcol1925	2.183504e+00
	memrrow1925	2.220589e+00
	memrcol1924	2.213771e+00
	memrrow1924	2.255213e+00
	memrcol1923	2.247748e+00
	memrrow1923	2.293982e+00
	memrcol1922	2.285838e+00
	memrrow1922	2.337374e+00
	memrcol1921	2.328496e+00
	memrrow1921	2.385920e+00
	memrcol1920	2.391432e+00
	memrrow1920	2.440208e+00
	memrcol1919	2.407338e+00
	memrrow1919	2.499374e+00
	memrcol1918	2.469450e+00
	memrrow1918	2.567744e+00
	memrcol1917	2.542836e+00
	memrrow1917	2.645943e+00
	memrcol1916	2.627905e+00
	memrrow1916	2.734452e+00
	memrcol1915	2.725012e+00
	memrrow1915	2.833617e+00
	memrcol1914	2.834457e+00
	memrrow1914	2.943642e+00
	memrcol1913	2.956481e+00
	memrrow1913	3.064585e+00
	memrcol1912	3.091252e+00
	memrrow1912	3.196339e+00
	memrcol1911	3.238849e+00
	memrrow1911	3.338601e+00
	memrcol1910	3.441688e+00
	memrrow1910	3.490838e+00
	memrcol199	3.607538e+00
	memrrow199	3.647991e+00
	memrcol198	3.776063e+00
	memrrow198	3.809188e+00
	memrcol197	3.946821e+00
	memrrow197	3.973699e+00
	memrcol196	4.119440e+00
	memrrow196	4.140897e+00
	memrcol195	4.293594e+00
	memrrow195	4.310240e+00
	memrcol194	4.468985e+00
	memrrow194	4.481249e+00
	memrcol193	4.645334e+00
	memrrow193	4.653483e+00
	memrcol192	4.822362e+00
	memrrow192	4.826533e+00
	memrcol191	4.999790e+00
	memrcol1850	2.014288e+00
	memrrow1850	2.000178e+00
	memrcol1849	1.995488e+00
	memrrow1849	1.998767e+00
	memrcol1848	1.992671e+00
	memrrow1848	1.997684e+00
	memrcol1847	1.990699e+00
	memrrow1847	1.997102e+00
	memrcol1846	1.989698e+00
	memrrow1846	1.997161e+00
	memrcol1845	1.989757e+00
	memrrow1845	1.997966e+00
	memrcol1844	1.990939e+00
	memrrow1844	1.999591e+00
	memrcol1843	1.993276e+00
	memrrow1843	2.002082e+00
	memrcol1842	1.996773e+00
	memrrow1842	2.005454e+00
	memrcol1841	2.001407e+00
	memrrow1841	2.009693e+00
	memrcol1840	2.023243e+00
	memrrow1840	2.014761e+00
	memrcol1839	2.009663e+00
	memrrow1839	2.018981e+00
	memrcol1838	2.013356e+00
	memrrow1838	2.024133e+00
	memrcol1837	2.018333e+00
	memrrow1837	2.030363e+00
	memrcol1836	2.024697e+00
	memrrow1836	2.037795e+00
	memrcol1835	2.032530e+00
	memrrow1835	2.046537e+00
	memrcol1834	2.041897e+00
[...]
          p           1.89291e-13            5.2032e-05            4.0249e-08

 Resistor: Simple linear resistor
     device                 r1138                 r1137                 r1136
      model                     R                     R                     R
 resistance                 10000                 10000                 10000
          i          -2.10556e-06          -2.01632e-06          -1.80159e-06
          p           4.43337e-08           4.06554e-08           3.24573e-08

 Resistor: Simple linear resistor
     device                 r1135                 r1134                 r1133
      model                     R                     R                     R
 resistance                 10000                 10000                 10000
          i          -1.50584e-06          -1.15981e-06          -7.84367e-07
          p           2.26755e-08           1.34517e-08           6.15232e-09

 Resistor: Simple linear resistor
     device                 r1132                 r1131                 r1130
      model                     R                     R                     R
 resistance                 10000                 10000                 10000
          i          -3.93499e-07           3.17594e-09           7.61099e-05
          p           1.54842e-09           1.00866e-13           5.79271e-05

 Resistor: Simple linear resistor
     device                 r1129                 r1128                 r1127
      model                     R                     R                     R
 resistance                 10000                 10000                 10000
          i          -4.80367e-06          -4.40128e-06          -3.86954e-06
          p           2.30753e-07           1.93713e-07           1.49733e-07

 Resistor: Simple linear resistor
     device                 r1126                 r1125                 r1124
      model                     R                     R                     R
 resistance                 10000                 10000                 10000
          i          -3.26483e-06          -2.62348e-06          -1.96746e-06
          p           1.06591e-07           6.88266e-08           3.87091e-08

 Resistor: Simple linear resistor
     device                 r1123                 r1122                 r1121
      model                     R                     R                     R
 resistance                 10000                 10000                 10000
          i          -1.30858e-06          -6.51779e-07           2.31871e-09
          p           1.71239e-08           4.24816e-09           5.37643e-14

 Resistor: Simple linear resistor
     device                 r1120                 r1119                 r1118
      model                     R                     R                     R
 resistance                 10000                 10000                 10000
          i           9.32207e-05          -8.64544e-06           -7.4698e-06
          p            8.6901e-05           7.47436e-07           5.57979e-07

 Resistor: Simple linear resistor
     device                 r1117                 r1116                 r1115
      model                     R                     R                     R
 resistance                 10000                 10000                 10000
          i          -6.28837e-06          -5.13576e-06          -4.02802e-06
          p           3.95436e-07            2.6376e-07           1.62249e-07

 Resistor: Simple linear resistor
     device                 r1114                 r1113                 r1112
      model                     R                     R                     R
 resistance                 10000                 10000                 10000
          i          -2.96843e-06          -1.95157e-06          -9.66378e-07
          p           8.81155e-08           3.80863e-08           9.33886e-09

 Resistor: Simple linear resistor
     device                 r1111                 r1110                  r119
      model                     R                     R                     R
 resistance                 10000                 10000                 10000
          i           1.69336e-09           6.30112e-05           5.02427e-05
          p           2.86747e-14           3.97042e-05           2.52433e-05

 Resistor: Simple linear resistor
     device                  r118                  r117                  r116
      model                     R                     R                     R
 resistance                 10000                 10000                 10000
          i           3.97845e-05           3.11705e-05           2.40108e-05
          p            1.5828e-05           9.71602e-06           5.76521e-06

 Resistor: Simple linear resistor
     device                  r115                  r114                  r113
      model                     R                     R                     R
 resistance                 10000                 10000                 10000
          i           1.79769e-05           1.27889e-05           8.20435e-06
          p            3.2317e-06           1.63557e-06           6.73114e-07

 Resistor: Simple linear resistor
     device                  r112                  r111                  r450
      model                     R                     R                     R
 resistance                 10000                 10000                 1e-09
          i           4.00748e-06           1.25451e-10            0.00149569
          p           1.60599e-07           1.57379e-16            2.2371e-15

 Resistor: Simple linear resistor
     device                  r449                  r448                  r447
      model                     R                     R                     R
 resistance                 1e-09                 1e-09                 1e-09
          i            0.00122213            0.00100986           0.000844658
          p           1.49361e-15           1.01981e-15           7.13447e-16

 Resistor: Simple linear resistor
     device                  r446                  r445                  r444
      model                     R                     R                     R
 resistance                 1e-09                 1e-09                 1e-09
          i           0.000714095           0.000720313           0.000644818
          p           5.09932e-16            5.1885e-16            4.1579e-16

 Resistor: Simple linear resistor
     device                  r443                  r442                  r441
      model                     R                     R                     R
 resistance                 1e-09                 1e-09                 1e-09
          i            0.00058975           0.000563993           0.000611955
          p           3.47806e-16           3.18088e-16           3.74489e-16

 Resistor: Simple linear resistor
     device                  r440                  r439                  r438
      model                     R                     R                     R
 resistance                 1e-09                 1e-09                 1e-09
          i           0.000333955           0.000304645           0.000280664
          p           1.11526e-16           9.28087e-17           7.87725e-17

 Resistor: Simple linear resistor
     device                  r437                  r436                  r435
      model                     R                     R                     R
 resistance                 1e-09                 1e-09                 1e-09
          i           0.000261124           0.000244249           0.000316192
          p            6.8186e-17           5.96576e-17           9.99771e-17

 Resistor: Simple linear resistor
     device                  r434                  r433                  r432
      model                     R                     R                     R
 resistance                 1e-09                 1e-09                 1e-09
          i           0.000311751           0.000305533           0.000318856
          p           9.71885e-17           9.33506e-17           1.01669e-16

 Resistor: Simple linear resistor
     device                  r431                  r430                  r429
      model                     R                     R                     R
 resistance                 1e-09                 1e-09                 1e-09
          i           0.000395239           0.000186517           0.000182077
          p           1.56214e-16           3.47888e-17           3.31519e-17

 Resistor: Simple linear resistor
     device                  r428                  r427                  r426
      model                     R                     R                     R
 resistance                 1e-09                 1e-09                 1e-09
          i           0.000176748           0.000174083           0.000171418
          p           3.12397e-17           3.03049e-17           2.93843e-17

 Resistor: Simple linear resistor
     device                  r425                  r424                  r423
      model                     R                     R                     R
 resistance                 1e-09                 1e-09                 1e-09
          i           0.000247802           0.000256684           0.000259348
          p           6.14057e-17           6.58865e-17           6.72614e-17

 Resistor: Simple linear resistor
     device                  r422                  r421                  r420
      model                     R                     R                     R
 resistance                 1e-09                 1e-09                 1e-09
          i           0.000269118           0.000351719           0.000171418
          p           7.24245e-17           1.23706e-16           2.93843e-17

 Resistor: Simple linear resistor
     device                  r419                  r418                  r417
      model                     R                     R                     R
 resistance                 1e-09                 1e-09                 1e-09
          i           0.000173195           0.000175859           0.000178524
          p           2.99964e-17           3.09265e-17           3.18708e-17

 Resistor: Simple linear resistor
     device                  r416                  r415                  r414
      model                     R                     R                     R
 resistance                 1e-09                 1e-09                 1e-09
          i           0.000182077           0.000254907           0.000262901
          p           3.31519e-17           6.49777e-17           6.91168e-17

 Resistor: Simple linear resistor
     device                  r413                  r412                  r411
      model                     R                     R                     R
 resistance                 1e-09                 1e-09                 1e-09
          i           0.000270894           0.000291323           0.000373035
          p           7.33838e-17           8.48688e-17           1.39155e-16

 Resistor: Simple linear resistor
     device                  r410                   r49                   r48
      model                     R                     R                     R
 resistance                 1e-09                 1e-09                 1e-09
          i           0.000206057            0.00020961           0.000212275
          p           4.24596e-17           4.39364e-17           4.50605e-17

 Resistor: Simple linear resistor
     device                   r47                   r46                   r45
      model                     R                     R                     R
 resistance                 1e-09                 1e-09                 1e-09
          i           0.000213163           0.000212275           0.000208722
          p           4.54384e-17           4.50605e-17           4.35648e-17

 Resistor: Simple linear resistor
     device                   r44                   r43                   r42
      model                     R                     R                     R
 resistance                 1e-09                 1e-09                 1e-09
          i           0.000103917           9.23706e-05           8.52651e-05
          p           1.07987e-17           8.53232e-18           7.27014e-18

 Resistor: Simple linear resistor
     device                   r41
      model                     R
 resistance                 1e-09
          i           8.26006e-05
          p           6.82286e-18

 Vsource: Independent voltage source
     device                   v50                   v49                   v48
         dc                     5                     5                     5
      acmag                     0                     0                     0
          i           -0.00149536           -0.00122166           -0.00100994
          p           -0.00747681           -0.00610828           -0.00504971

 Vsource: Independent voltage source
     device                   v47                   v46                   v45
         dc                     5                     5                     5
      acmag                     0                     0                     0
          i          -0.000844002          -0.000713348          -0.000720024
          p           -0.00422001           -0.00356674           -0.00360012

 Vsource: Independent voltage source
     device                   v44                   v43                   v42
         dc                     5                     5                     5
      acmag                     0                     0                     0
          i          -0.000644684          -0.000589371          -0.000563622
          p           -0.00322342           -0.00294685           -0.00281811

 Vsource: Independent voltage source
     device                   v41                   v40                   v39
         dc                     5                     5                     5
      acmag                     0                     0                     0
          i          -0.000611305          -0.000333786          -0.000304222
          p           -0.00305653           -0.00166893           -0.00152111

 Vsource: Independent voltage source
     device                   v38                   v37                   v36
         dc                     5                     5                     5
      acmag                     0                     0                     0
          i           -0.00028038          -0.000260353          -0.000244141
          p            -0.0014019           -0.00130177            -0.0012207

 Vsource: Independent voltage source
     device                   v35                   v34                   v33
         dc                     5                     5                     5
      acmag                     0                     0                     0
          i          -0.000315666          -0.000311852          -0.000305176
          p           -0.00157833           -0.00155926           -0.00152588

 Vsource: Independent voltage source
     device                   v32                   v31                   v30
         dc                     5                     5                     5
      acmag                     0                     0                     0
          i          -0.000318527          -0.000394821          -0.000185966
          p           -0.00159264           -0.00197411          -0.000929832

 Vsource: Independent voltage source
     device                   v29                   v28                   v27
         dc                     5                     5                     5
      acmag                     0                     0                     0
          i          -0.000182152           -0.00017643          -0.000173569
          p          -0.000910759          -0.000882149          -0.000867844

 Vsource: Independent voltage source
     device                   v26                   v25                   v24
         dc                     5                     5                     5
      acmag                     0                     0                     0
          i          -0.000170708          -0.000247002          -0.000256538
          p          -0.000853539           -0.00123501           -0.00128269

 Vsource: Independent voltage source
     device                   v23                   v22                   v21
         dc                     5                     5                     5
      acmag                     0                     0                     0
          i          -0.000259399          -0.000268936          -0.000350952
          p             -0.001297           -0.00134468           -0.00175476

 Vsource: Independent voltage source
     device                   v20                   v19                   v18
         dc                     5                     5                     5
      acmag                     0                     0                     0
          i          -0.000170708          -0.000172615          -0.000175476
          p          -0.000853539          -0.000863075           -0.00087738

 Vsource: Independent voltage source
     device                   v17                   v16                   v15
         dc                     5                     5                     5
      acmag                     0                     0                     0
          i          -0.000178337          -0.000182152          -0.000254631
          p          -0.000891685          -0.000910759           -0.00127316

 Vsource: Independent voltage source
     device                   v14                   v13                   v12
         dc                     5                     5                     5
      acmag                     0                     0                     0
          i           -0.00026226          -0.000270844          -0.000290871
          p            -0.0013113           -0.00135422           -0.00145435

 Vsource: Independent voltage source
     device                   v11                   v10                    v9
         dc                     5                     5                     5
      acmag                     0                     0                     0
          i          -0.000372887          -0.000205994          -0.000208855
          p           -0.00186443           -0.00102997           -0.00104427

 Vsource: Independent voltage source
     device                    v8                    v7                    v6
         dc                     5                     5                     5
      acmag                     0                     0                     0
          i          -0.000211716          -0.000212669          -0.000211716
          p           -0.00105858           -0.00106335           -0.00105858

 Vsource: Independent voltage source
     device                    v5                    v4                    v3
         dc                     5                     5                     5
      acmag                     0                     0                     0
          i          -0.000207901          -0.000103951          -9.15527e-05
          p           -0.00103951          -0.000519753          -0.000457764

 Vsource: Independent voltage source
     device                    v2                    v1
         dc                     5                     5
      acmag                     0                     0
          i           -8.4877e-05           -8.2016e-05
          p          -0.000424385           -0.00041008

CPU time since last call: 0.986 seconds.

Total CPU time: 0.986 seconds.

MacSpice memory reserved: 42991616,
MacSpice memory peak use: 17693600,
MacSpice memory in use:   17224112.

