
Circuit: *mat_array.cir


Circuit: *mat_array.cir
Date: Tue Mar 12 10:59:35  2019


Operating point information:

	Node	Voltage
	----	-------
	i_560	0.000000e+00
	i_527	0.000000e+00
	i_495	0.000000e+00
	i_464	0.000000e+00
	i_434	0.000000e+00
	i_405	0.000000e+00
	i_377	0.000000e+00
	i_350	0.000000e+00
	i_324	0.000000e+00
	i_299	0.000000e+00
	i_275	0.000000e+00
	i_252	0.000000e+00
	i_230	0.000000e+00
	i_209	0.000000e+00
	i_189	0.000000e+00
	i_170	0.000000e+00
	i_152	0.000000e+00
	i_135	0.000000e+00
	i_119	0.000000e+00
	i_104	0.000000e+00
	i_90	0.000000e+00
	i_77	0.000000e+00
	i_65	0.000000e+00
	i_54	0.000000e+00
	i_44	0.000000e+00
	i_35	0.000000e+00
	i_27	0.000000e+00
	i_20	0.000000e+00
	i_14	0.000000e+00
	i_9	0.000000e+00
	i_5	0.000000e+00
	i_2	0.000000e+00
	colc_32	0.000000e+00
	colc_31	0.000000e+00
	colc_30	0.000000e+00
	colc_29	0.000000e+00
	colc_28	0.000000e+00
	colc_27	0.000000e+00
	colc_26	0.000000e+00
	colc_25	0.000000e+00
	colc_24	0.000000e+00
	colc_23	0.000000e+00
	colc_22	0.000000e+00
	colc_21	0.000000e+00
	colc_20	0.000000e+00
	colc_19	0.000000e+00
	colc_18	0.000000e+00
	colc_17	0.000000e+00
	colc_16	0.000000e+00
	colc_15	0.000000e+00
	colc_14	0.000000e+00
	colc_13	0.000000e+00
	colc_12	0.000000e+00
	colc_11	0.000000e+00
	colc_10	0.000000e+00
	colc_9	0.000000e+00
	colc_8	0.000000e+00
	colc_7	0.000000e+00
	colc_6	0.000000e+00
	colc_5	0.000000e+00
	colc_4	0.000000e+00
	colc_3	0.000000e+00
	colc_2	0.000000e+00
	colc_1	0.000000e+00
	memrcol2177	5.161287e-15
	memrcol2111	5.160968e-15
	memrcol2046	5.160198e-15
	memrcol1982	5.158708e-15
	memrcol1919	5.156099e-15
	memrcol1857	5.151832e-15
	memrcol1796	5.145234e-15
	memrcol1736	5.135489e-15
	memrcol1677	5.121643e-15
	memrcol1619	5.102598e-15
	memrcol1562	5.077112e-15
	memrcol1506	5.043802e-15
	memrcol1451	5.001145e-15
	memrcol1397	4.947481e-15
	memrcol1344	4.881022e-15
	memrcol1292	4.799862e-15
	memrcol1241	4.701993e-15
	memrcol1191	4.585323e-15
	memrcol1142	4.447708e-15
	memrcol1094	4.286986e-15
	memrcol1047	4.101018e-15
	memrcol1001	3.887746e-15
	memrcol956	3.645260e-15
	memrcol912	3.371879e-15
	memrcol869	3.066243e-15
	memrcol827	2.727427e-15
	memrcol786	2.355067e-15
	memrcol746	1.949508e-15
	memrcol707	1.511961e-15
	memrcol669	1.044683e-15
	memrcol632	5.511673e-16
	memrcol596	3.633576e-17
	memrrow2178	5.144743e-03
	memrrow2113	1.029243e-02
	memrrow2049	1.544589e-02
	memrrow1986	2.060771e-02
	memrrow1924	2.578010e-02
	memrrow1863	3.096479e-02
	memrrow1803	3.616287e-02
	memrrow1744	4.137467e-02
	memrrow1686	4.659964e-02
	memrrow1629	5.183612e-02
	memrrow1573	5.708128e-02
	memrrow1518	6.233087e-02
	memrrow1464	6.757911e-02
	memrrow1411	7.281846e-02
	memrrow1359	7.803946e-02
	memrrow1308	8.323054e-02
	memrrow1258	8.837779e-02
	memrrow1209	9.346482e-02
	memrrow1161	9.847254e-02
	memrrow1114	1.033790e-01
	memrrow1068	1.081592e-01
	memrrow1023	1.127849e-01
	memrrow979	1.172249e-01
	memrrow936	1.214444e-01
	memrrow894	1.254055e-01
	memrrow853	1.290672e-01
	memrrow813	1.323856e-01
	memrrow774	1.353141e-01
	memrrow736	1.378044e-01
	memrrow699	1.398067e-01
	memrrow663	1.412711e-01
	memrrow628	1.426464e-01
	memrcol2112	5.161287e-03
	memrrow2112	5.144743e-03
	memrcol2047	5.160968e-03
	memrrow2047	5.143089e-03
	memrcol1983	5.160198e-03
	memrrow1983	5.139646e-03
	memrcol1920	5.158708e-03
	memrrow1920	5.134149e-03
	memrcol1858	5.156099e-03
	memrrow1858	5.126195e-03
	memrcol1797	5.151832e-03
	memrrow1797	5.115251e-03
	memrcol1737	5.145234e-03
	memrrow1737	5.100649e-03
	memrcol1678	5.135489e-03
	memrrow1678	5.081589e-03
	memrcol1620	5.121643e-03
	memrrow1620	5.057138e-03
	memrcol1563	5.102598e-03
	memrrow1563	5.026237e-03
	memrcol1507	5.077112e-03
	memrrow1507	4.987700e-03
	memrcol1452	5.043802e-03
	memrrow1452	4.940222e-03
	memrcol1398	5.001145e-03
	memrrow1398	4.882386e-03
	memrcol1345	4.947481e-03
	memrrow1345	4.812674e-03
	memrcol1293	4.881022e-03
	memrrow1293	4.729482e-03
	memrcol1242	4.799862e-03
	memrrow1242	4.631135e-03
	memrcol1192	4.701993e-03
	memrrow1192	4.515915e-03
	memrcol1143	4.585323e-03
	memrrow1143	4.382088e-03
	memrcol1095	4.447708e-03
	memrrow1095	4.227938e-03
	memrcol1048	4.286986e-03
	memrrow1048	4.051810e-03
	memrcol1002	4.101018e-03
	memrrow1002	3.852165e-03
	memrcol957	3.887746e-03
	memrrow957	3.627634e-03
	memrcol913	3.645260e-03
	memrrow913	3.377092e-03
	memrcol870	3.371879e-03
	memrrow870	3.099734e-03
	memrcol828	3.066243e-03
	memrrow828	2.795161e-03
	memrcol787	2.727427e-03
	memrrow787	2.463479e-03
	memrcol747	2.355067e-03
	memrrow747	2.105403e-03
	memrcol708	1.949508e-03
	memrrow708	1.722360e-03
	memrcol670	1.511961e-03
	memrrow670	1.316603e-03
	memrcol633	1.044683e-03
	memrrow633	8.913098e-04
	memrcol597	5.511673e-04
	memrrow597	4.506793e-04
	memrcol562	3.633576e-05
	memrcol2048	1.032423e-02
	memrrow2048	1.029243e-02
	memrcol1984	1.032372e-02
	memrrow1984	1.028925e-02
	memrcol1921	1.032245e-02
	memrrow1921	1.028263e-02
	memrcol1859	1.031987e-02
	memrrow1859	1.027202e-02
	memrcol1798	1.031519e-02
	memrrow1798	1.025662e-02
	memrcol1738	1.030732e-02
	memrrow1738	1.023537e-02
	memrcol1679	1.029493e-02
	memrrow1679	1.020692e-02
	memrcol1621	1.027637e-02
	memrrow1621	1.016968e-02
	memrcol1564	1.024974e-02
	memrrow1564	1.012176e-02
	memrcol1508	1.021283e-02
	memrrow1508	1.006105e-02
	memrcol1453	1.016316e-02
	memrrow1453	9.985152e-03
	memrcol1399	1.009796e-02
	memrrow1399	9.891458e-03
	memrcol1346	1.001417e-02
	memrrow1346	9.777114e-03
	memrcol1294	9.908443e-03
	memrrow1294	9.639064e-03
	memrcol1243	9.777199e-03
	memrrow1243	9.474077e-03
	memrcol1193	9.616597e-03
	memrrow1193	9.278777e-03
	memrcol1144	9.422593e-03
	memrrow1144	9.049695e-03
	memrcol1096	9.190969e-03
	memrrow1096	8.783324e-03
	memrcol1049	8.917394e-03
	memrrow1049	8.476187e-03
	memrcol1003	8.597490e-03
	memrrow1003	8.124931e-03
	memrcol958	8.226921e-03
	memrrow958	7.726418e-03
	memrcol914	7.801503e-03
	memrrow914	7.277855e-03
	memrcol871	7.317337e-03
	memrrow871	6.776928e-03
	memrcol829	6.770973e-03
	memrrow829	6.221959e-03
	memrcol788	6.159594e-03
	memrrow788	5.612089e-03
	memrcol748	5.481249e-03
	memrrow748	4.947468e-03
	memrcol709	4.735101e-03
	memrrow709	4.229470e-03
	memrcol671	3.921730e-03
	memrrow671	3.460908e-03
	memrcol634	3.043457e-03
	memrrow634	2.646264e-03
	memrcol598	2.104704e-03
	memrrow598	1.791900e-03
	memrcol563	1.112383e-03
	memrrow563	9.062565e-04
	memrcol529	7.630509e-05
	memrcol1985	1.549035e-02
	memrrow1985	1.544589e-02
	memrcol1922	1.548993e-02
	memrrow1922	1.544145e-02
	memrcol1860	1.548869e-02
	memrrow1860	1.543215e-02
	memrcol1799	1.548582e-02
	memrrow1799	1.541721e-02
	memrcol1739	1.548013e-02
	memrrow1739	1.539540e-02
	memrcol1680	1.547001e-02
	memrrow1680	1.536512e-02
	memrcol1622	1.545342e-02
	memrrow1622	1.532435e-02
	memrcol1565	1.542792e-02
	memrrow1565	1.527067e-02
	memrcol1509	1.539063e-02
	memrrow1509	1.520127e-02
	memrcol1454	1.533824e-02
	memrrow1454	1.511293e-02
	memrcol1400	1.526702e-02
	memrrow1400	1.500205e-02
	memrcol1347	1.517277e-02
	memrrow1347	1.486469e-02
	memrcol1295	1.505089e-02
	memrrow1295	1.469651e-02
	memrcol1244	1.489634e-02
	memrrow1244	1.449290e-02
	memrcol1194	1.470369e-02
	memrrow1194	1.424894e-02
	memrcol1145	1.446711e-02
	memrrow1145	1.395950e-02
	memrcol1097	1.418048e-02
	memrrow1097	1.361931e-02
	memrcol1050	1.383738e-02
	memrrow1050	1.322300e-02
	memrcol1004	1.343120e-02
	memrrow1004	1.276525e-02
	memrcol959	1.295525e-02
	memrrow959	1.224090e-02
	memrcol915	1.240287e-02
	memrrow915	1.164512e-02
	memrcol872	1.176762e-02
	memrrow872	1.097356e-02
	memrcol830	1.104346e-02
	memrrow830	1.022260e-02
	memrcol789	1.022497e-02
	memrrow789	9.389553e-03
	memrcol749	9.307696e-03
	memrrow749	8.472964e-03
	memrcol710	8.288448e-03
	memrrow710	7.472901e-03
	memrcol672	7.165698e-03
	memrrow672	6.391284e-03
	memrcol635	5.940035e-03
	memrrow635	5.232225e-03
	memrcol599	4.614673e-03
	memrrow599	4.002386e-03
	memrcol564	3.196005e-03
	memrrow564	2.711317e-03
	memrcol530	1.694212e-03
	memrrow530	1.371780e-03
	memrcol497	1.239049e-04
	memrcol1923	2.066092e-02
	memrrow1923	2.060771e-02
	memrcol1861	2.066098e-02
	memrrow1861	2.060239e-02
	memrcol1800	2.066057e-02
	memrrow1800	2.059121e-02
	memrcol1740	2.065863e-02
	memrrow1740	2.057309e-02
	memrcol1681	2.065355e-02
	memrrow1681	2.054642e-02
	memrcol1623	2.064318e-02
	memrrow1623	2.050904e-02
	memrcol1566	2.062482e-02
	memrrow1566	2.045824e-02
	memrcol1510	2.059519e-02
	memrrow1510	2.039079e-02
	memrcol1455	2.055046e-02
	memrrow1455	2.030289e-02
	memrcol1401	2.048619e-02
	memrrow1401	2.019024e-02
	memrcol1348	2.039737e-02
	memrrow1348	2.004800e-02
	memrcol1296	2.027839e-02
	memrrow1296	1.987082e-02
	memrcol1245	2.012306e-02
	memrrow1245	1.965288e-02
	memrcol1195	1.992459e-02
	memrrow1195	1.938792e-02
	memrcol1146	1.967565e-02
	memrrow1146	1.906929e-02
	memrcol1098	1.936839e-02
	memrrow1098	1.869003e-02
	memrcol1051	1.899449e-02
	memrrow1051	1.824294e-02
	memrcol1005	1.854523e-02
	memrrow1005	1.772069e-02
	memrcol960	1.801160e-02
	memrrow960	1.711598e-02
	memrcol916	1.738444e-02
	memrrow916	1.642171e-02
	memrcol873	1.665460e-02
	memrrow873	1.563117e-02
	memrcol831	1.581315e-02
	memrrow831	1.473829e-02
	memrcol790	1.485166e-02
	memrrow790	1.373792e-02
	memrcol750	1.376250e-02
	memrrow750	1.262617e-02
	memrcol711	1.253927e-02
	memrrow711	1.140080e-02
	memrcol673	1.117720e-02
	memrrow673	1.006157e-02
	memrcol636	9.673736e-03
	memrrow636	8.610785e-03
	memrcol600	8.029121e-03
	memrrow600	7.053703e-03
	memrcol565	6.247118e-03
	memrrow565	5.399078e-03
	memrcol531	4.335774e-03
	memrrow531	3.659650e-03
	memrcol498	2.308284e-03
	memrrow498	1.852609e-03
	memrcol466	1.838953e-04
	memrcol1862	2.583681e-02
	memrrow1862	2.578010e-02
	memrcol1801	2.583789e-02
	memrrow1801	2.577443e-02
	memrcol1741	2.583940e-02
	memrrow1741	2.576241e-02
	memrcol1682	2.584000e-02
	memrrow1682	2.574270e-02
	memrcol1624	2.583768e-02
	memrrow1624	2.571325e-02
	memrcol1567	2.582977e-02
	memrrow1567	2.567136e-02
	memrcol1511	2.581288e-02
	memrrow1511	2.561364e-02
	memrcol1456	2.578291e-02
	memrrow1456	2.553598e-02
	memrcol1402	2.573504e-02
	memrrow1402	2.543364e-02
	memrcol1349	2.566373e-02
	memrrow1349	2.530115e-02
	memrcol1297	2.556266e-02
	memrrow1297	2.513241e-02
	memrcol1246	2.542477e-02
	memrrow1246	2.492064e-02
	memrcol1196	2.524224e-02
	memrrow1196	2.465846e-02
	memrcol1147	2.500650e-02
	memrrow1147	2.433790e-02
	memrcol1099	2.470825e-02
	memrrow1099	2.395048e-02
	memrcol1052	2.433751e-02
	memrrow1052	2.348729e-02
	memrcol1006	2.388365e-02
	memrrow1006	2.293907e-02
	memrcol961	2.333553e-02
	memrrow961	2.229640e-02
	memrcol917	2.268157e-02
	memrrow917	2.154981e-02
	memrcol874	2.190991e-02
	memrrow874	2.069005e-02
	memrcol832	2.100867e-02
	memrrow832	1.970830e-02
	memrcol791	1.996617e-02
	memrrow791	1.859652e-02
	memrcol751	1.877124e-02
	memrrow751	1.734777e-02
	memrcol712	1.741367e-02
	memrrow712	1.595667e-02
	memrcol674	1.588469e-02
	memrrow674	1.441988e-02
	memrcol637	1.417752e-02
	memrrow637	1.273660e-02
	memrcol601	1.228807e-02
	memrrow601	1.090923e-02
	memrcol566	1.021575e-02
	memrrow566	8.943974e-03
	memrcol532	7.964366e-03
	memrrow532	6.851542e-03
	memrcol499	5.543157e-03
	memrrow499	4.647828e-03
	memrcol467	2.967923e-03
	memrrow467	2.354581e-03
	memrcol436	2.622751e-04
	memrcol1802	3.101836e-02
	memrrow1802	3.096479e-02
	memrcol1742	3.102115e-02
	memrrow1742	3.095943e-02
	memrcol1683	3.102592e-02
	memrrow1683	3.094790e-02
	memrcol1625	3.103109e-02
	memrrow1625	3.092857e-02
	memrcol1568	3.103426e-02
	memrrow1568	3.089898e-02
	memrcol1512	3.103220e-02
	memrrow1512	3.085587e-02
	memrcol1457	3.102086e-02
	memrrow1457	3.079513e-02
	memrcol1403	3.099531e-02
	memrrow1403	3.071181e-02
	memrcol1350	3.094977e-02
	memrrow1350	3.060014e-02
	memrcol1298	3.087752e-02
	memrrow1298	3.045351e-02
	memrcol1247	3.077097e-02
	memrrow1247	3.026448e-02
	memrcol1197	3.062156e-02
	memrrow1197	3.002479e-02
	memrcol1148	3.041980e-02
	memrrow1148	2.972544e-02
	memrcol1100	3.015527e-02
	memrrow1100	2.935664e-02
	memrcol1053	2.981663e-02
	memrrow1053	2.890798e-02
	memrcol1007	2.939164e-02
	memrrow1007	2.836846e-02
	memrcol962	2.886727e-02
	memrrow962	2.772662e-02
	memrcol918	2.822975e-02
	memrrow918	2.697072e-02
	memrcol875	2.746470e-02
	memrrow875	2.608891e-02
	memrcol833	2.655736e-02
	memrrow833	2.506953e-02
	memrcol792	2.549278e-02
	memrrow792	2.390136e-02
	memrcol752	2.425615e-02
	memrrow752	2.257404e-02
	memrcol713	2.283316e-02
	memrrow713	2.107852e-02
	memrcol675	2.121054e-02
	memrrow675	1.940753e-02
	memrcol638	1.937660e-02
	memrrow638	1.755624e-02
	memrcol602	1.732193e-02
	memrrow602	1.552292e-02
	memrcol567	1.504029e-02
	memrrow567	1.330969e-02
	memrcol533	1.252955e-02
	memrrow533	1.092341e-02
	memrcol500	9.792897e-03
	memrrow500	8.376506e-03
	memrcol468	6.840072e-03
	memrrow468	5.687967e-03
	memrcol437	3.688897e-03
	memrrow437	2.884218e-03
	memrcol407	3.668825e-04
	memrcol1743	3.620528e-02
	memrrow1743	3.616287e-02
	memrcol1684	3.621058e-02
	memrrow1684	3.615863e-02
	memrcol1626	3.622025e-02
	memrrow1626	3.614919e-02
	memrcol1569	3.623244e-02
	memrrow1569	3.613265e-02
	memrcol1513	3.624436e-02
	memrrow1513	3.610613e-02
	memrcol1458	3.625226e-02
	memrrow1458	3.606578e-02
	memrcol1404	3.625141e-02
	memrrow1404	3.600679e-02
	memrcol1351	3.623607e-02
	memrrow1351	3.592333e-02
	memrcol1299	3.619945e-02
	memrrow1299	3.580860e-02
	memrcol1248	3.613372e-02
	memrrow1248	3.565479e-02
	memrcol1198	3.602993e-02
	memrrow1198	3.545308e-02
	memrcol1149	3.587802e-02
	memrrow1149	3.519368e-02
	memrcol1101	3.566679e-02
	memrrow1101	3.486586e-02
	memrcol1054	3.538390e-02
	memrrow1054	3.445794e-02
	memrcol1008	3.501586e-02
	memrrow1008	3.395742e-02
	memrcol963	3.454810e-02
	memrrow963	3.335106e-02
	memrcol919	3.396496e-02
	memrrow919	3.262499e-02
	memrcol876	3.324987e-02
	memrrow876	3.176493e-02
	memrcol834	3.238542e-02
	memrrow834	3.075637e-02
	memrcol793	3.135360e-02
	memrrow793	2.958491e-02
	memrcol753	3.013603e-02
	memrrow753	2.823658e-02
	memrcol714	2.871433e-02
	memrrow714	2.669830e-02
	memrcol676	2.707055e-02
	memrrow676	2.495843e-02
	memrcol639	2.518772e-02
	memrrow639	2.300733e-02
	memrcol603	2.305054e-02
	memrrow603	2.083820e-02
	memrcol568	2.064624e-02
	memrrow568	1.844784e-02
	memrcol534	1.796556e-02
	memrrow534	1.583764e-02
	memrcol501	1.500397e-02
	memrrow501	1.301464e-02
	memrcol469	1.176307e-02
	memrrow469	9.992717e-03
	memrcol438	8.252197e-03
	memrrow438	6.793754e-03
	memrcol408	4.490339e-03
	memrrow408	3.448947e-03
	memrcol379	5.081781e-04
	memrcol1685	4.139644e-02
	memrrow1685	4.137467e-02
	memrcol1627	4.140520e-02
	memrrow1627	4.137250e-02
	memrcol1570	4.142168e-02
	memrrow1570	4.136705e-02
	memrcol1514	4.144377e-02
	memrrow1514	4.135614e-02
	memrcol1459	4.146829e-02
	memrrow1459	4.133647e-02
	memrcol1405	4.149098e-02
	memrrow1405	4.130362e-02
	memrcol1352	4.150643e-02
	memrrow1352	4.125203e-02
	memrcol1300	4.150810e-02
	memrrow1300	4.117500e-02
	memrcol1249	4.148822e-02
	memrrow1249	4.106467e-02
	memrcol1199	4.143781e-02
	memrrow1199	4.091197e-02
	memrcol1150	4.134658e-02
	memrrow1150	4.070669e-02
	memrcol1102	4.120292e-02
	memrrow1102	4.043743e-02
	memrcol1055	4.099388e-02
	memrrow1055	4.009161e-02
	memrcol1009	4.070513e-02
	memrrow1009	3.965557e-02
	memrcol964	4.032095e-02
	memrrow964	3.911457e-02
	memrcol920	3.982425e-02
	memrrow920	3.845294e-02
	memrcol877	3.919664e-02
	memrrow877	3.765417e-02
	memrcol835	3.841848e-02
	memrrow835	3.670116e-02
	memrcol794	3.746904e-02
	memrrow794	3.557641e-02
	memrcol754	3.632671e-02
	memrrow754	3.426240e-02
	memrcol715	3.496923e-02
	memrrow715	3.274196e-02
	memrcol677	3.337413e-02
	memrrow677	3.099880e-02
	memrcol640	3.151915e-02
	memrrow640	2.901810e-02
	memrcol604	2.938292e-02
	memrrow604	2.678730e-02
	memrcol569	2.694571e-02
	memrrow569	2.429693e-02
	memrcol535	2.419039e-02
	memrrow535	2.154169e-02
	memrcol502	2.110363e-02
	memrrow502	1.852157e-02
	memrcol470	1.767733e-02
	memrrow470	1.524325e-02
	memrcol439	1.391027e-02
	memrrow439	1.172152e-02
	memrcol409	9.810167e-03
	memrrow409	7.980914e-03
	memrcol380	5.395920e-03
	memrrow380	4.057384e-03
	memrcol352	7.002915e-04
	memrcol1628	4.658977e-02
	memrrow1628	4.659964e-02
	memrcol1571	4.660309e-02
	memrrow1571	4.660062e-02
	memrcol1515	4.662857e-02
	memrrow1515	4.660136e-02
	memrcol1460	4.666385e-02
	memrrow1460	4.659938e-02
	memrcol1406	4.670540e-02
	memrrow1406	4.659095e-02
	memrcol1353	4.674842e-02
	memrrow1353	4.657108e-02
	memrcol1301	4.678689e-02
	memrrow1301	4.653348e-02
	memrcol1250	4.681344e-02
	memrrow1250	4.647053e-02
	memrcol1200	4.681935e-02
	memrrow1200	4.637329e-02
	memrcol1151	4.679448e-02
	memrrow1151	4.623145e-02
	memrcol1103	4.672721e-02
	memrrow1103	4.603330e-02
	memrcol1056	4.660437e-02
	memrrow1056	4.576576e-02
	memrcol1010	4.641120e-02
	memrrow1010	4.541435e-02
	memrcol965	4.613132e-02
	memrrow965	4.496327e-02
	memrcol921	4.574667e-02
	memrrow921	4.439538e-02
	memrcol878	4.523754e-02
	memrrow878	4.369236e-02
	memrcol836	4.458257e-02
	memrrow836	4.283482e-02
	memrcol795	4.375883e-02
	memrrow795	4.180251e-02
	memrcol755	4.274193e-02
	memrrow755	4.057456e-02
	memrcol716	4.150625e-02
	memrrow716	3.912988e-02
	memrcol678	4.002515e-02
	memrrow678	3.744756e-02
	memrcol641	3.827145e-02
	memrrow641	3.550748e-02
	memrcol605	3.621786e-02
	memrrow605	3.329100e-02
	memrcol570	3.383770e-02
	memrrow570	3.078184e-02
	memrcol536	3.110576e-02
	memrrow536	2.796709e-02
	memrcol503	2.799941e-02
	memrrow503	2.483847e-02
	memrcol471	2.449991e-02
	memrrow471	2.139376e-02
	memrcol440	2.059409e-02
	memrrow440	1.763843e-02
	memrcol410	1.627635e-02
	memrrow410	1.358754e-02
	memrcol381	1.155106e-02
	memrrow381	9.267771e-03
	memrcol353	6.435354e-03
	memrrow353	4.719670e-03
	memrcol326	9.624341e-04
	memrcol1572	5.178212e-02
	memrrow1572	5.183612e-02
	memrcol1516	5.180123e-02
	memrrow1516	5.184152e-02
	memrcol1461	5.183818e-02
	memrrow1461	5.185095e-02
	memrcol1407	5.189039e-02
	memrrow1407	5.186166e-02
	memrcol1354	5.195395e-02
	memrrow1354	5.186949e-02
	memrcol1302	5.202360e-02
	memrrow1302	5.186888e-02
	memrcol1251	5.209269e-02
	memrrow1251	5.185279e-02
	memrcol1201	5.215307e-02
	memrrow1201	5.181271e-02
	memrcol1152	5.219509e-02
	memrrow1152	5.173860e-02
	memrcol1104	5.220746e-02
	memrrow1104	5.161884e-02
	memrcol1057	5.217724e-02
	memrrow1057	5.144022e-02
	memrcol1011	5.208968e-02
	memrrow1011	5.118790e-02
	memrcol966	5.192820e-02
	memrrow966	5.084540e-02
	memrcol922	5.167431e-02
	memrrow922	5.039462e-02
	memrcol879	5.130752e-02
	memrrow879	4.981587e-02
	memrcol837	5.080535e-02
	memrrow837	4.908795e-02
	memrcol796	5.014327e-02
	memrrow796	4.818830e-02
	memrcol756	4.929481e-02
	memrrow756	4.709315e-02
	memrcol717	4.823155e-02
	memrrow717	4.577783e-02
	memrcol679	4.692342e-02
	memrrow679	4.421714e-02
	memrcol642	4.533884e-02
	memrrow642	4.238582e-02
	memrcol606	4.344517e-02
	memrrow606	4.025919e-02
	memrcol571	4.120925e-02
	memrrow571	3.781397e-02
	memrcol537	3.859805e-02
	memrrow537	3.502923e-02
	memrcol504	3.557968e-02
	memrrow504	3.188760e-02
	memrcol472	3.212453e-02
	memrrow472	2.837676e-02
	memrcol441	2.820680e-02
	memrrow441	2.449114e-02
	memrcol411	2.380641e-02
	memrrow411	2.023396e-02
	memrcol382	1.891131e-02
	memrrow382	1.561953e-02
	memrcol354	1.352029e-02
	memrrow354	1.067593e-02
	memrcol327	7.646357e-03
	memrrow327	5.447888e-03
	memrcol301	1.320820e-03
	memrcol1517	5.696906e-02
	memrrow1517	5.708128e-02
	memrcol1462	5.699535e-02
	memrrow1462	5.709250e-02
	memrcol1408	5.704652e-02
	memrrow1408	5.711344e-02
	memrcol1355	5.711980e-02
	memrrow1355	5.714106e-02
	memrcol1303	5.721095e-02
	memrrow1303	5.717082e-02
	memrcol1252	5.731426e-02
	memrrow1252	5.719656e-02
	memrcol1202	5.742248e-02
	memrrow1202	5.721053e-02
	memrcol1153	5.752674e-02
	memrrow1153	5.720331e-02
	memrcol1105	5.761647e-02
	memrrow1105	5.716374e-02
	memrcol1058	5.767930e-02
	memrrow1058	5.707891e-02
	memrcol1012	5.770096e-02
	memrrow1012	5.693403e-02
	memrcol967	5.766516e-02
	memrrow967	5.671246e-02
	memrcol923	5.755348e-02
	memrrow923	5.639562e-02
	memrcol880	5.734527e-02
	memrrow880	5.596299e-02
	memrcol838	5.701754e-02
	memrrow838	5.539213e-02
	memrcol797	5.654490e-02
	memrrow797	5.465874e-02
	memrcol757	5.589948e-02
	memrrow757	5.373672e-02
	memrcol718	5.505095e-02
	memrrow718	5.259844e-02
	memrcol680	5.396655e-02
	memrrow680	5.121490e-02
	memrcol643	5.261122e-02
	memrrow643	4.955619e-02
	memrcol607	5.094782e-02
	memrrow607	4.759199e-02
	memrcol572	4.893749e-02
	memrrow572	4.529220e-02
	memrcol538	4.654017e-02
	memrrow538	4.262788e-02
	memrcol505	4.371530e-02
	memrrow505	3.957233e-02
	memrcol473	4.042281e-02
	memrrow473	3.610248e-02
	memrcol442	3.662442e-02
	memrrow442	3.220060e-02
	memrcol412	3.228526e-02
	memrrow412	2.785634e-02
	memrcol383	2.737599e-02
	memrrow383	2.306919e-02
	memrcol355	2.187545e-02
	memrrow355	1.785136e-02
	memrcol328	1.577395e-02
	memrrow328	1.223111e-02
	memrcol302	9.077207e-03
	memrrow302	6.256587e-03
	memrcol277	1.811288e-03
	memrcol1463	6.214479e-02
	memrrow1463	6.233087e-02
	memrcol1409	6.217974e-02
	memrrow1409	6.234948e-02
	memrcol1356	6.224817e-02
	memrrow1356	6.238506e-02
	memrcol1304	6.234708e-02
	memrrow1304	6.243433e-02
	memrcol1253	6.247196e-02
	memrrow1253	6.249233e-02
	memrcol1203	6.261668e-02
	memrrow1203	6.255236e-02
	memrcol1154	6.277346e-02
	memrrow1154	6.260596e-02
	memrcol1106	6.293275e-02
	memrrow1106	6.264282e-02
	memrcol1059	6.308313e-02
	memrrow1059	6.265067e-02
	memrcol1013	6.321118e-02
	memrrow1013	6.261529e-02
	memrcol968	6.330139e-02
	memrrow968	6.252031e-02
	memrcol924	6.333592e-02
	memrrow924	6.234723e-02
	memrcol881	6.329455e-02
	memrrow881	6.207528e-02
	memrcol839	6.315446e-02
	memrrow839	6.168140e-02
	memrcol798	6.289010e-02
	memrrow798	6.114021e-02
	memrcol758	6.247306e-02
	memrrow758	6.042404e-02
	memrcol719	6.187195e-02
	memrrow719	5.950297e-02
	memrcol681	6.105234e-02
	memrrow681	5.834499e-02
	memrcol644	5.997671e-02
	memrrow644	5.691629e-02
	memrcol608	5.860453e-02
	memrrow608	5.518153e-02
	memrcol573	5.689239e-02
	memrrow573	5.310448e-02
	memrcol539	5.479434e-02
	memrrow539	5.064864e-02
	memrcol506	5.226232e-02
	memrrow506	4.777823e-02
	memrcol474	4.924683e-02
	memrrow474	4.445941e-02
	memrcol443	4.569797e-02
	memrrow443	4.066185e-02
	memrcol413	4.156669e-02
	memrrow413	3.636068e-02
	memrcol384	3.680660e-02
	memrrow384	3.153891e-02
	memrcol356	3.137624e-02
	memrrow356	2.619036e-02
	memrcol329	2.524200e-02
	memrrow329	2.032323e-02
	memrcol303	1.838189e-02
	memrrow303	1.396422e-02
	memrcol278	1.079012e-02
	memrrow278	7.163444e-03
	memrcol254	2.482885e-03
	memrcol1410	6.730191e-02
	memrrow1410	6.757911e-02
	memrcol1357	6.734717e-02
	memrrow1357	6.760683e-02
	memrcol1305	6.743613e-02
	memrrow1305	6.766052e-02
	memrcol1254	6.756564e-02
	memrrow1254	6.773664e-02
	memrcol1204	6.773093e-02
	memrrow1204	6.782987e-02
	memrcol1155	6.792553e-02
	memrrow1155	6.793299e-02
	memrcol1107	6.814119e-02
	memrrow1107	6.803685e-02
	memrcol1060	6.836775e-02
	memrrow1060	6.813029e-02
	memrcol1014	6.859303e-02
	memrrow1014	6.819997e-02
	memrcol969	6.880265e-02
	memrrow969	6.823035e-02
	memrcol925	6.897991e-02
	memrrow925	6.820350e-02
	memrcol882	6.910555e-02
	memrrow882	6.809901e-02
	memrcol840	6.915754e-02
	memrrow840	6.789386e-02
	memrcol799	6.911095e-02
	memrrow799	6.756235e-02
	memrcol759	6.893764e-02
	memrrow759	6.707597e-02
	memrcol720	6.860612e-02
	memrrow720	6.640343e-02
	memrcol682	6.808133e-02
	memrrow682	6.551062e-02
	memrcol645	6.732447e-02
	memrrow645	6.436073e-02
	memrcol609	6.629292e-02
	memrrow609	6.291448e-02
	memrcol574	6.494013e-02
	memrrow574	6.113037e-02
	memrcol540	6.321575e-02
	memrrow540	5.896530e-02
	memrcol507	6.106576e-02
	memrrow507	5.637518e-02
	memrcol475	5.843287e-02
	memrrow475	5.331599e-02
	memrcol444	5.525711e-02
	memrrow444	4.974513e-02
	memrcol414	5.147674e-02
	memrrow414	4.562306e-02
	memrcol385	4.702957e-02
	memrrow385	4.091562e-02
	memrcol357	4.185472e-02
	memrrow357	3.559679e-02
	memrcol330	3.589508e-02
	memrrow330	2.965217e-02
	memrcol304	2.910043e-02
	memrrow304	2.308325e-02
	memrcol279	2.143160e-02
	memrrow279	1.591262e-02
	memrcol255	1.286570e-02
	memrrow255	8.190091e-03
	memrcol232	3.402770e-03
	memrcol1358	7.243130e-02
	memrrow1358	7.281846e-02
	memrcol1306	7.248862e-02
	memrrow1306	7.285718e-02
	memrcol1255	7.260164e-02
	memrrow1255	7.293275e-02
	memrcol1205	7.276710e-02
	memrrow1205	7.304143e-02
	memrcol1156	7.298001e-02
	memrrow1156	7.317754e-02
	memrcol1108	7.323364e-02
	memrrow1108	7.333341e-02
	memrcol1061	7.351936e-02
	memrrow1061	7.349925e-02
	memrcol1015	7.382650e-02
	memrrow1015	7.366309e-02
	memrcol970	7.414223e-02
	memrrow970	7.381058e-02
	memrcol926	7.445135e-02
	memrrow926	7.392491e-02
	memrcol883	7.473608e-02
	memrrow883	7.398659e-02
	memrcol841	7.497583e-02
	memrrow841	7.397332e-02
	memrcol800	7.514691e-02
	memrrow800	7.385981e-02
	memrcol760	7.522230e-02
	memrrow760	7.361758e-02
	memrcol721	7.517135e-02
	memrrow721	7.321488e-02
	memrcol683	7.495946e-02
	memrrow683	7.261654e-02
	memrcol646	7.454778e-02
	memrrow646	7.178390e-02
	memrcol610	7.389298e-02
	memrrow610	7.067488e-02
	memrcol575	7.294696e-02
	memrrow575	6.924404e-02
	memrcol541	7.165671e-02
	memrrow541	6.744291e-02
	memrcol508	6.996415e-02
	memrrow508	6.522041e-02
	memrcol476	6.780624e-02
	memrrow476	6.252352e-02
	memrcol445	6.511512e-02
	memrrow445	5.929837e-02
	memrcol415	6.181859e-02
	memrrow415	5.549154e-02
	memrcol386	5.784089e-02
	memrrow386	5.105201e-02
	memrcol358	5.310384e-02
	memrrow358	4.593359e-02
	memrcol331	4.752863e-02
	memrrow331	4.009814e-02
	memrcol305	4.103821e-02
	memrrow305	3.351964e-02
	memrcol280	3.356057e-02
	memrrow280	2.618929e-02
	memrcol256	2.503321e-02
	memrrow256	1.812181e-02
	memrcol233	1.540884e-02
	memrrow233	9.363186e-03
	memrcol211	4.662933e-03
	memrcol1307	7.752198e-02
	memrrow1307	7.803946e-02
	memrcol1256	7.759323e-02
	memrrow1256	7.809121e-02
	memrcol1206	7.773405e-02
	memrrow1206	7.819276e-02
	memrcol1157	7.794112e-02
	memrrow1157	7.834017e-02
	memrcol1109	7.820934e-02
	memrrow1109	7.852750e-02
	memrcol1062	7.853178e-02
	memrrow1062	7.874663e-02
	memrcol1016	7.889953e-02
	memrrow1016	7.898726e-02
	memrcol971	7.930159e-02
	memrrow971	7.923665e-02
	memrcol927	7.972460e-02
	memrrow927	7.947956e-02
	memrcol884	8.015270e-02
	memrrow884	7.969795e-02
	memrcol842	8.056720e-02
	memrrow842	7.987088e-02
	memrcol801	8.094636e-02
	memrrow801	7.997417e-02
	memrcol761	8.126498e-02
	memrrow761	7.998024e-02
	memrcol722	8.149413e-02
	memrrow722	7.985784e-02
	memrcol684	8.160071e-02
	memrrow684	7.957181e-02
	memrcol647	8.154708e-02
	memrrow647	7.908288e-02
	memrcol611	8.129061e-02
	memrrow611	7.834754e-02
	memrcol576	8.078329e-02
	memrrow576	7.731789e-02
	memrcol542	7.997130e-02
	memrrow542	7.594171e-02
	memrcol509	7.879467e-02
	memrrow509	7.416256e-02
	memrcol477	7.718693e-02
	memrrow477	7.192020e-02
	memrcol446	7.507499e-02
	memrrow446	6.915116e-02
	memrcol416	7.237904e-02
	memrrow416	6.578975e-02
	memrcol387	6.901278e-02
	memrrow387	6.176940e-02
	memrcol359	6.488391e-02
	memrrow359	5.702472e-02
	memrcol332	5.989513e-02
	memrrow332	5.149412e-02
	memrcol306	5.394559e-02
	memrrow306	4.512342e-02
	memrcol281	4.693319e-02
	memrrow281	3.787050e-02
	memrcol257	3.875785e-02
	memrrow257	2.971131e-02
	memrcol234	2.932595e-02
	memrrow234	2.064746e-02
	memrcol212	1.855654e-02
	memrrow212	1.071577e-02
	memrcol191	6.389388e-03
	memrcol1257	8.256092e-02
	memrrow1257	8.323054e-02
	memrcol1207	8.264803e-02
	memrrow1207	8.329750e-02
	memrcol1158	8.282059e-02
	memrrow1158	8.342941e-02
	memrcol1110	8.307524e-02
	memrrow1110	8.362220e-02
	memrcol1063	8.340685e-02
	memrrow1063	8.386969e-02
	memrcol1017	8.380842e-02
	memrrow1017	8.416346e-02
	memrcol972	8.427094e-02
	memrrow972	8.449273e-02
	memrcol928	8.478317e-02
	memrrow928	8.484418e-02
	memrcol885	8.533148e-02
	memrrow885	8.520174e-02
	memrcol843	8.589952e-02
	memrrow843	8.554632e-02
	memrcol802	8.646796e-02
	memrrow802	8.585558e-02
	memrcol762	8.701410e-02
	memrrow762	8.610360e-02
	memrcol723	8.751152e-02
	memrrow723	8.626058e-02
	memrcol685	8.792958e-02
	memrrow685	8.629246e-02
	memrcol648	8.823296e-02
	memrrow648	8.616062e-02
	memrcol612	8.838113e-02
	memrrow612	8.582155e-02
	memrcol577	8.832776e-02
	memrrow577	8.522653e-02
	memrcol543	8.802015e-02
	memrrow543	8.432138e-02
	memrcol510	8.739860e-02
	memrrow510	8.304636e-02
	memrcol478	8.639584e-02
	memrrow478	8.133611e-02
	memrcol447	8.493639e-02
	memrrow447	7.911988e-02
	memrcol417	8.293613e-02
	memrrow417	7.632201e-02
	memrcol388	8.030189e-02
	memrrow388	7.286273e-02
	memrcol360	7.693130e-02
	memrrow360	6.865952e-02
	memrcol333	7.271286e-02
	memrrow333	6.362915e-02
	memrcol307	6.752653e-02
	memrrow307	5.769040e-02
	memrcol282	6.124477e-02
	memrrow282	5.076803e-02
	memrcol258	5.373445e-02
	memrrow258	4.279799e-02
	memrcol235	4.485977e-02
	memrrow235	3.373431e-02
	memrcol213	3.448655e-02
	memrrow213	2.355808e-02
	memrcol192	2.248833e-02
	memrrow192	1.228901e-02
	memrcol172	8.754783e-03
	memrcol1208	8.753289e-02
	memrrow1208	8.837779e-02
	memrcol1159	8.763788e-02
	memrrow1159	8.846228e-02
	memrcol1111	8.784624e-02
	memrrow1111	8.862921e-02
	memrcol1064	8.815466e-02
	memrrow1064	8.887444e-02
	memrcol1018	8.855808e-02
	memrrow1018	8.919164e-02
	memrcol973	8.904957e-02
	memrrow973	8.957220e-02
	memrcol929	8.962016e-02
	memrrow929	9.000503e-02
	memrcol886	9.025866e-02
	memrrow886	9.047634e-02
	memrcol844	9.095133e-02
	memrrow844	9.096942e-02
	memrcol803	9.168166e-02
	memrrow803	9.146430e-02
	memrcol763	9.242995e-02
	memrrow763	9.193745e-02
	memrcol724	9.317290e-02
	memrrow724	9.236136e-02
	memrcol686	9.388316e-02
	memrrow686	9.270411e-02
	memrcol649	9.452875e-02
	memrrow649	9.292895e-02
	memrcol613	9.507245e-02
	memrrow613	9.299381e-02
	memrcol578	9.547113e-02
	memrrow578	9.285081e-02
	memrcol544	9.567502e-02
	memrrow544	9.244578e-02
	memrcol511	9.562688e-02
	memrrow511	9.171782e-02
	memrcol479	9.526113e-02
	memrrow479	9.059895e-02
	memrcol448	9.450298e-02
	memrrow448	8.901387e-02
	memrcol418	9.326749e-02
	memrrow418	8.687988e-02
	memrcol389	9.145867e-02
	memrrow389	8.410713e-02
	memrcol361	8.896866e-02
	memrrow361	8.059922e-02
	memrcol334	8.567699e-02
	memrrow334	7.625437e-02
	memrcol308	8.145018e-02
	memrrow308	7.096725e-02
	memrcol283	7.614154e-02
	memrrow283	6.463185e-02
	memrcol259	6.959162e-02
	memrrow259	5.714547e-02
	memrcol236	6.162935e-02
	memrrow236	4.841448e-02
	memrcol214	5.207424e-02
	memrrow214	3.836200e-02
	memrcol193	4.073999e-02
	memrrow193	2.693830e-02
	memrcol173	2.744004e-02
	memrrow173	1.413443e-02
	memrcol154	1.199566e-02
	memrcol1160	9.242037e-02
	memrrow1160	9.346482e-02
	memrcol1112	9.254530e-02
	memrrow1112	9.356927e-02
	memrcol1065	9.279360e-02
	memrrow1065	9.377611e-02
	memrcol1019	9.316210e-02
	memrrow1019	9.408120e-02
	memrcol974	9.364595e-02
	memrrow974	9.447821e-02
	memrcol930	9.423845e-02
	memrrow930	9.495843e-02
	memrcol887	9.493090e-02
	memrrow887	9.551066e-02
	memrcol845	9.571237e-02
	memrrow845	9.612087e-02
	memrcol804	9.656937e-02
	memrrow804	9.677192e-02
	memrcol764	9.748553e-02
	memrrow764	9.744323e-02
	memrcol725	9.844118e-02
	memrrow725	9.811030e-02
	memrcol687	9.941286e-02
	memrrow687	9.874429e-02
	memrcol650	1.003727e-01
	memrrow650	9.931143e-02
	memrcol614	1.012879e-01
	memrrow614	9.977243e-02
	memrcol579	1.021198e-01
	memrrow579	1.000819e-01
	memrcol545	1.028232e-01
	memrrow545	1.001876e-01
	memrcol512	1.033452e-01
	memrrow512	1.000297e-01
	memrcol480	1.036245e-01
	memrrow480	9.954022e-02
	memrcol449	1.035899e-01
	memrrow449	9.864234e-02
	memrcol419	1.031590e-01
	memrrow419	9.724971e-02
	memrcol390	1.022374e-01
	memrrow390	9.526615e-02
	memrcol362	1.007164e-01
	memrrow362	9.258547e-02
	memrcol335	9.847237e-02
	memrrow335	8.909170e-02
	memrcol309	9.536495e-02
	memrrow309	8.465986e-02
	memrcol284	9.123579e-02
	memrrow284	7.915751e-02
	memrcol260	8.590752e-02
	memrrow260	7.244734e-02
	memrcol237	7.918309e-02
	memrrow237	6.439115e-02
	memrcol215	7.084574e-02
	memrrow215	5.485576e-02
	memrcol194	6.065994e-02
	memrrow194	4.372137e-02
	memrcol174	4.837361e-02
	memrrow174	3.089313e-02
	memrcol155	3.372232e-02
	memrrow155	1.631684e-02
	memrcol137	1.643609e-02
	memrcol1113	9.720341e-02
	memrrow1113	9.847254e-02
	memrcol1066	9.735032e-02
	memrrow1066	9.859945e-02
	memrcol1020	9.764271e-02
	memrrow1020	9.885128e-02
	memrcol975	9.807764e-02
	memrrow975	9.922397e-02
	memrcol931	9.865059e-02
	memrrow931	9.971128e-02
	memrcol888	9.935533e-02
	memrrow888	1.003047e-01
	memrcol846	1.001837e-01
	memrrow846	1.009930e-01
	memrcol805	1.011252e-01
	memrrow805	1.017622e-01
	memrcol765	1.021672e-01
	memrrow765	1.025952e-01
	memrcol726	1.032936e-01
	memrrow726	1.034709e-01
	memrcol688	1.044855e-01
	memrrow688	1.043644e-01
	memrcol651	1.057197e-01
	memrrow651	1.052458e-01
	memrcol615	1.069684e-01
	memrrow615	1.060798e-01
	memrcol580	1.081986e-01
	memrrow580	1.068249e-01
	memrcol546	1.093709e-01
	memrrow546	1.074327e-01
	memrcol513	1.104388e-01
	memrrow513	1.078467e-01
	memrcol481	1.113470e-01
	memrrow481	1.080014e-01
	memrcol450	1.120306e-01
	memrrow450	1.078216e-01
	memrcol420	1.124134e-01
	memrrow420	1.072209e-01
	memrcol391	1.124060e-01
	memrrow391	1.061009e-01
	memrcol363	1.119043e-01
	memrrow363	1.043505e-01
	memrcol336	1.107872e-01
	memrrow336	1.018446e-01
	memrcol310	1.089141e-01
	memrrow310	9.844450e-02
	memrcol285	1.061234e-01
	memrrow285	9.399742e-02
	memrcol261	1.022292e-01
	memrrow261	8.833775e-02
	memrcol238	9.701952e-02
	memrrow238	8.128892e-02
	memrcol216	9.025375e-02
	memrrow216	7.266704e-02
	memrcol195	8.166113e-02
	memrrow195	6.228648e-02
	memrcol175	7.093949e-02
	memrrow175	4.996846e-02
	memrcol156	5.775527e-02
	memrrow156	3.555334e-02
	memrcol138	4.174514e-02
	memrrow138	1.891803e-02
	memrcol121	2.252014e-02
	memrcol1067	1.018595e-01
	memrrow1067	1.033790e-01
	memrcol1021	1.020304e-01
	memrrow1021	1.035309e-01
	memrcol976	1.023710e-01
	memrrow976	1.038329e-01
	memrcol932	1.028785e-01
	memrrow932	1.042811e-01
	memrcol889	1.035492e-01
	memrrow889	1.048696e-01
	memrcol847	1.043773e-01
	memrrow847	1.055901e-01
	memrcol806	1.053555e-01
	memrrow806	1.064318e-01
	memrcol766	1.064744e-01
	memrrow766	1.073812e-01
	memrcol727	1.077221e-01
	memrrow727	1.084213e-01
	memrcol689	1.090840e-01
	memrrow689	1.095313e-01
	memrcol652	1.105419e-01
	memrrow652	1.106860e-01
	memrcol616	1.120739e-01
	memrrow616	1.118551e-01
	memrcol581	1.136529e-01
	memrrow581	1.130024e-01
	memrcol547	1.152467e-01
	memrrow547	1.140846e-01
	memrcol514	1.168159e-01
	memrrow514	1.150506e-01
	memrcol482	1.183136e-01
	memrrow482	1.158401e-01
	memrcol451	1.196833e-01
	memrrow451	1.163822e-01
	memrcol421	1.208575e-01
	memrrow421	1.165942e-01
	memrcol392	1.217561e-01
	memrrow392	1.163799e-01
	memrcol364	1.222835e-01
	memrrow364	1.156280e-01
	memrcol337	1.223267e-01
	memrrow337	1.142105e-01
	memrcol311	1.217522e-01
	memrrow311	1.119814e-01
	memrcol286	1.204029e-01
	memrrow286	1.087752e-01
	memrcol262	1.180945e-01
	memrrow262	1.044062e-01
	memrcol239	1.146118e-01
	memrrow239	9.866846e-02
	memrcol217	1.097046e-01
	memrrow217	9.133634e-02
	memrcol196	1.030831e-01
	memrrow196	8.216739e-02
	memrcol176	9.441398e-02
	memrrow176	7.090688e-02
	memrcol157	8.331615e-02
	memrrow157	5.729566e-02
	memrcol139	6.935712e-02
	memrrow139	4.108239e-02
	memrcol122	5.205067e-02
	memrrow122	2.204165e-02
	memrcol106	3.085620e-02
	memrcol1022	1.063637e-01
	memrrow1022	1.081592e-01
	memrcol977	1.065605e-01
	memrrow977	1.083387e-01
	memrcol933	1.069530e-01
	memrrow933	1.086961e-01
	memrcol890	1.075392e-01
	memrrow890	1.092277e-01
	memrcol848	1.083157e-01
	memrrow848	1.099283e-01
	memrcol807	1.092779e-01
	memrrow807	1.107901e-01
	memrcol767	1.104197e-01
	memrrow767	1.118030e-01
	memrcol728	1.117329e-01
	memrrow728	1.129544e-01
	memrcol690	1.132072e-01
	memrrow690	1.142279e-01
	memrcol653	1.148297e-01
	memrrow653	1.156034e-01
	memrcol617	1.165840e-01
	memrrow617	1.170563e-01
	memrcol582	1.184499e-01
	memrrow582	1.185565e-01
	memrcol548	1.204025e-01
	memrrow548	1.200673e-01
	memrcol515	1.224109e-01
	memrrow515	1.215446e-01
	memrcol483	1.244374e-01
	memrrow483	1.229352e-01
	memrcol452	1.264357e-01
	memrrow452	1.241757e-01
	memrcol422	1.283497e-01
	memrrow422	1.251901e-01
	memrcol393	1.301108e-01
	memrrow393	1.258886e-01
	memrcol365	1.316365e-01
	memrrow365	1.261649e-01
	memrcol338	1.328266e-01
	memrrow338	1.258940e-01
	memrcol312	1.335607e-01
	memrrow312	1.249298e-01
	memrcol287	1.336943e-01
	memrrow287	1.231025e-01
	memrcol263	1.330544e-01
	memrrow263	1.202161e-01
	memrcol240	1.314344e-01
	memrrow240	1.160458e-01
	memrcol218	1.285888e-01
	memrrow218	1.103367e-01
	memrcol197	1.242265e-01
	memrrow197	1.028024e-01
	memrcol177	1.180040e-01
	memrrow177	9.312564e-02
	memrcol158	1.095175e-01
	memrrow158	8.096107e-02
	memrcol140	9.829485e-02
	memrrow140	6.594085e-02
	memrcol123	8.378645e-02
	memrrow123	4.768524e-02
	memrcol107	6.535711e-02
	memrrow107	2.581950e-02
	memrcol92	4.227789e-02
	memrcol978	1.106883e-01
	memrrow978	1.127849e-01
	memrcol934	1.109127e-01
	memrrow934	1.129946e-01
	memrcol891	1.113608e-01
	memrrow891	1.134124e-01
	memrcol849	1.120310e-01
	memrrow849	1.140354e-01
	memrcol808	1.129210e-01
	memrrow808	1.148589e-01
	memrcol768	1.140274e-01
	memrrow768	1.158761e-01
	memrcol729	1.153456e-01
	memrrow729	1.170783e-01
	memrcol691	1.168692e-01
	memrrow691	1.184537e-01
	memrcol654	1.185902e-01
	memrrow654	1.199875e-01
	memrcol618	1.204979e-01
	memrrow618	1.216611e-01
	memrcol583	1.225788e-01
	memrrow583	1.234509e-01
	memrcol549	1.248153e-01
	memrrow549	1.253280e-01
	memrcol516	1.271856e-01
	memrrow516	1.272564e-01
	memrcol484	1.296618e-01
	memrrow484	1.291918e-01
	memrcol453	1.322091e-01
	memrrow453	1.310803e-01
	memrcol423	1.347839e-01
	memrrow423	1.328559e-01
	memrcol394	1.373320e-01
	memrrow394	1.344386e-01
	memrcol366	1.397864e-01
	memrrow366	1.357321e-01
	memrcol339	1.420640e-01
	memrrow339	1.366201e-01
	memrcol313	1.440629e-01
	memrrow313	1.369637e-01
	memrcol288	1.456578e-01
	memrrow288	1.365974e-01
	memrcol264	1.466956e-01
	memrrow264	1.353250e-01
	memrcol241	1.469897e-01
	memrrow241	1.329156e-01
	memrcol219	1.463131e-01
	memrrow219	1.290988e-01
	memrcol198	1.443909e-01
	memrrow198	1.235605e-01
	memrcol178	1.408907e-01
	memrrow178	1.159393e-01
	memrcol159	1.354127e-01
	memrrow159	1.058228e-01
	memrcol141	1.274768e-01
	memrrow141	9.274740e-02
	memrcol124	1.165090e-01
	memrrow124	7.619905e-02
	memrcol108	1.018259e-01
	memrrow108	5.561970e-02
	memrcol93	8.261731e-02
	memrrow93	3.041973e-02
	memrcol79	5.792736e-02
	memrcol935	1.148033e-01
	memrrow935	1.172249e-01
	memrcol892	1.150568e-01
	memrrow892	1.174671e-01
	memrcol850	1.155633e-01
	memrrow850	1.179502e-01
	memrcol809	1.163223e-01
	memrrow809	1.186721e-01
	memrcol769	1.173325e-01
	memrrow769	1.196290e-01
	memrcol730	1.185920e-01
	memrrow730	1.208155e-01
	memrcol692	1.200982e-01
	memrrow692	1.222243e-01
	memrcol655	1.218471e-01
	memrrow655	1.238458e-01
	memrcol619	1.238335e-01
	memrrow619	1.256671e-01
	memrcol584	1.260499e-01
	memrrow584	1.276718e-01
	memrcol550	1.284863e-01
	memrrow550	1.298387e-01
	memrcol517	1.311295e-01
	memrrow517	1.321409e-01
	memrcol485	1.339616e-01
	memrrow485	1.345442e-01
	memrcol454	1.369597e-01
	memrrow454	1.370057e-01
	memrcol424	1.400937e-01
	memrrow424	1.394719e-01
	memrcol395	1.433248e-01
	memrrow395	1.418758e-01
	memrcol367	1.466037e-01
	memrrow367	1.441349e-01
	memrcol340	1.498673e-01
	memrrow340	1.461470e-01
	memrcol314	1.530359e-01
	memrrow314	1.477872e-01
	memrcol289	1.560091e-01
	memrrow289	1.489025e-01
	memrcol265	1.586609e-01
	memrrow265	1.493071e-01
	memrcol242	1.608340e-01
	memrrow242	1.487763e-01
	memrcol220	1.623325e-01
	memrrow220	1.470398e-01
	memrcol199	1.629133e-01
	memrrow199	1.437740e-01
	memrcol179	1.622760e-01
	memrrow179	1.385942e-01
	memrcol160	1.600502e-01
	memrrow160	1.310463e-01
	memrcol142	1.557804e-01
	memrrow142	1.205979e-01
	memrcol125	1.489089e-01
	memrrow125	1.066314e-01
	memrcol109	1.387541e-01
	memrrow109	8.843705e-02
	memrcol94	1.244860e-01
	memrrow94	6.521102e-02
	memrcol80	1.050973e-01
	memrrow80	3.605750e-02
	memrcol67	7.936956e-02
	memrcol893	1.186761e-01
	memrrow893	1.214444e-01
	memrcol851	1.189598e-01
	memrrow851	1.217212e-01
	memrcol810	1.195272e-01
	memrrow810	1.222742e-01
	memrcol770	1.203787e-01
	memrrow770	1.231019e-01
	memrcol731	1.215143e-01
	memrrow731	1.242019e-01
	memrcol693	1.229342e-01
	memrrow693	1.255706e-01
	memrcol656	1.246381e-01
	memrrow656	1.272030e-01
	memrcol620	1.266251e-01
	memrrow620	1.290918e-01
	memrcol585	1.288934e-01
	memrrow585	1.312274e-01
	memrcol551	1.314397e-01
	memrrow551	1.335963e-01
	memrcol518	1.342587e-01
	memrrow518	1.361809e-01
	memrcol486	1.373425e-01
	memrrow486	1.389577e-01
	memrcol455	1.406794e-01
	memrrow455	1.418960e-01
	memrcol425	1.442530e-01
	memrrow425	1.449560e-01
	memrcol396	1.480404e-01
	memrrow396	1.480863e-01
	memrcol368	1.520107e-01
	memrrow368	1.512212e-01
	memrcol341	1.561223e-01
	memrrow341	1.542772e-01
	memrcol315	1.603203e-01
	memrrow315	1.571486e-01
	memrcol290	1.645327e-01
	memrrow290	1.597028e-01
	memrcol266	1.686660e-01
	memrrow266	1.617741e-01
	memrcol243	1.725994e-01
	memrrow243	1.631562e-01
	memrcol221	1.761781e-01
	memrrow221	1.635939e-01
	memrcol200	1.792045e-01
	memrrow200	1.627733e-01
	memrcol180	1.814274e-01
	memrrow180	1.603095e-01
	memrcol161	1.825294e-01
	memrrow161	1.557339e-01
	memrcol143	1.821100e-01
	memrrow143	1.484788e-01
	memrcol126	1.796664e-01
	memrrow126	1.378605e-01
	memrcol110	1.745688e-01
	memrrow110	1.230617e-01
	memrcol95	1.660308e-01
	memrrow95	1.031121e-01
	memrcol81	1.530735e-01
	memrrow81	7.687067e-02
	memrcol68	1.344812e-01
	memrrow68	4.300895e-02
	memrcol56	1.087487e-01
	memrcol852	1.222721e-01
	memrrow852	1.254055e-01
	memrcol811	1.225867e-01
	memrrow811	1.257189e-01
	memrcol771	1.232164e-01
	memrrow771	1.263454e-01
	memrcol732	1.241627e-01
	memrrow732	1.272849e-01
	memrcol694	1.254274e-01
	memrrow694	1.285366e-01
	memrcol657	1.270128e-01
	memrrow657	1.300992e-01
	memrcol621	1.289216e-01
	memrrow621	1.319704e-01
	memrcol586	1.311565e-01
	memrrow586	1.341465e-01
	memrcol552	1.337199e-01
	memrrow552	1.366216e-01
	memrcol519	1.366138e-01
	memrrow519	1.393869e-01
	memrcol487	1.398388e-01
	memrrow487	1.424295e-01
	memrcol456	1.433940e-01
	memrrow456	1.457312e-01
	memrcol426	1.472755e-01
	memrrow426	1.492665e-01
	memrcol397	1.514760e-01
	memrrow397	1.530010e-01
	memrcol369	1.559826e-01
	memrrow369	1.568880e-01
	memrcol342	1.607755e-01
	memrrow342	1.608656e-01
	memrcol316	1.658254e-01
	memrrow316	1.648521e-01
	memrcol291	1.710904e-01
	memrrow291	1.687413e-01
	memrcol267	1.765125e-01
	memrrow267	1.723956e-01
	memrcol244	1.820121e-01
	memrrow244	1.756382e-01
	memrcol222	1.874823e-01
	memrrow222	1.782435e-01
	memrcol201	1.927807e-01
	memrrow201	1.799248e-01
	memrcol181	1.977196e-01
	memrrow181	1.803206e-01
	memrcol162	2.020534e-01
	memrrow162	1.789764e-01
	memrcol144	2.054623e-01
	memrrow144	1.753246e-01
	memrcol127	2.075330e-01
	memrrow127	1.686590e-01
	memrcol111	2.077330e-01
	memrrow111	1.581059e-01
	memrcol96	2.053794e-01
	memrrow96	1.425902e-01
	memrcol82	1.995995e-01
	memrrow82	1.207956e-01
	memrcol69	1.892814e-01
	memrrow69	9.112053e-02
	memrcol57	1.730124e-01
	memrrow57	5.162941e-02
	memrcol46	1.490028e-01
	memrcol812	1.255548e-01
	memrrow812	1.290672e-01
	memrcol772	1.259003e-01
	memrrow772	1.294185e-01
	memrcol733	1.265927e-01
	memrrow733	1.301215e-01
	memrcol695	1.276345e-01
	memrrow695	1.311775e-01
	memrcol658	1.290296e-01
	memrrow658	1.325877e-01
	memrcol622	1.307828e-01
	memrrow622	1.343538e-01
	memrcol587	1.329002e-01
	memrrow587	1.364769e-01
	memrcol553	1.353888e-01
	memrrow553	1.389578e-01
	memrcol520	1.382562e-01
	memrrow520	1.417955e-01
	memrcol488	1.415105e-01
	memrrow488	1.449871e-01
	memrcol457	1.451598e-01
	memrrow457	1.485264e-01
	memrcol427	1.492117e-01
	memrrow427	1.524024e-01
	memrcol398	1.536725e-01
	memrrow398	1.565974e-01
	memrcol370	1.585465e-01
	memrrow370	1.610849e-01
	memrcol343	1.638342e-01
	memrrow343	1.658263e-01
	memrcol317	1.695313e-01
	memrrow317	1.707668e-01
	memrcol292	1.756258e-01
	memrrow292	1.758309e-01
	memrcol268	1.820955e-01
	memrrow268	1.809155e-01
	memrcol245	1.889039e-01
	memrrow245	1.858822e-01
	memrcol223	1.959955e-01
	memrrow223	1.905466e-01
	memrcol202	2.032890e-01
	memrrow202	1.946661e-01
	memrcol182	2.106688e-01
	memrrow182	1.979234e-01
	memrcol163	2.179747e-01
	memrrow163	1.999061e-01
	memrcol145	2.249870e-01
	memrrow145	2.000820e-01
	memrcol128	2.314090e-01
	memrrow128	1.977674e-01
	memrcol112	2.368433e-01
	memrrow112	1.920886e-01
	memrcol97	2.407622e-01
	memrrow97	1.819343e-01
	memrcol83	2.424689e-01
	memrrow83	1.658972e-01
	memrcol70	2.410486e-01
	memrrow70	1.422030e-01
	memrcol58	2.353053e-01
	memrrow58	1.086242e-01
	memrcol47	2.236818e-01
	memrrow47	6.237734e-02
	memrcol37	2.041571e-01
	memrcol773	1.284862e-01
	memrrow773	1.323856e-01
	memrcol734	1.288622e-01
	memrrow734	1.327755e-01
	memrcol696	1.296161e-01
	memrrow696	1.335568e-01
	memrcol659	1.307521e-01
	memrrow659	1.347321e-01
	memrcol623	1.322759e-01
	memrrow623	1.363055e-01
	memrcol588	1.341957e-01
	memrrow588	1.382818e-01
	memrcol554	1.365212e-01
	memrrow554	1.406667e-01
	memrcol521	1.392643e-01
	memrrow521	1.434662e-01
	memrcol489	1.424387e-01
	memrrow489	1.466859e-01
	memrcol458	1.460597e-01
	memrrow458	1.503303e-01
	memrcol428	1.501442e-01
	memrrow428	1.544017e-01
	memrcol399	1.547104e-01
	memrrow399	1.588989e-01
	memrcol371	1.597771e-01
	memrrow371	1.638149e-01
	memrcol344	1.653631e-01
	memrrow344	1.691348e-01
	memrcol318	1.714866e-01
	memrrow318	1.748318e-01
	memrcol293	1.781635e-01
	memrrow293	1.808633e-01
	memrcol269	1.854057e-01
	memrrow269	1.871648e-01
	memrcol246	1.932186e-01
	memrrow246	1.936421e-01
	memrcol224	2.015976e-01
	memrrow224	2.001619e-01
	memrcol203	2.105239e-01
	memrrow203	2.065381e-01
	memrcol183	2.199580e-01
	memrrow183	2.125157e-01
	memrcol164	2.298315e-01
	memrrow164	2.177490e-01
	memrcol146	2.400366e-01
	memrrow146	2.217741e-01
	memrcol129	2.504111e-01
	memrrow129	2.239730e-01
	memrcol113	2.607198e-01
	memrrow113	2.235281e-01
	memrcol98	2.706291e-01
	memrrow98	2.193640e-01
	memrcol84	2.796743e-01
	memrrow84	2.100733e-01
	memrcol71	2.872156e-01
	memrrow71	1.938226e-01
	memrcol59	2.923822e-01
	memrrow59	1.682326e-01
	memrcol48	2.939973e-01
	memrrow48	1.302276e-01
	memrcol38	2.904817e-01
	memrrow38	7.584559e-02
	memrcol29	2.797271e-01
	memrcol735	1.310276e-01
	memrrow735	1.353141e-01
	memrcol697	1.314327e-01
	memrrow697	1.357428e-01
	memrcol660	1.322455e-01
	memrrow660	1.366024e-01
	memrcol624	1.334716e-01
	memrrow624	1.378978e-01
	memrcol589	1.351193e-01
	memrrow589	1.396357e-01
	memrcol555	1.371999e-01
	memrrow555	1.418253e-01
	memrcol522	1.397276e-01
	memrrow522	1.444775e-01
	memrcol490	1.427195e-01
	memrrow490	1.476046e-01
	memrcol459	1.461963e-01
	memrrow459	1.512203e-01
	memrcol429	1.501817e-01
	memrrow429	1.553383e-01
	memrcol400	1.547029e-01
	memrrow400	1.599720e-01
	memrcol372	1.597902e-01
	memrrow372	1.651326e-01
	memrcol345	1.654778e-01
	memrrow345	1.708275e-01
	memrcol319	1.718026e-01
	memrrow319	1.770573e-01
	memrcol294	1.788046e-01
	memrrow294	1.838126e-01
	memrcol270	1.865258e-01
	memrrow270	1.910687e-01
	memrcol247	1.950097e-01
	memrrow247	1.987790e-01
	memrcol225	2.042992e-01
	memrrow225	2.068663e-01
	memrcol204	2.144348e-01
	memrrow204	2.152103e-01
	memrcol184	2.254509e-01
	memrrow184	2.236319e-01
	memrcol165	2.373712e-01
	memrrow165	2.318715e-01
	memrcol147	2.502025e-01
	memrrow147	2.395612e-01
	memrcol130	2.639247e-01
	memrrow130	2.461868e-01
	memrcol114	2.784790e-01
	memrrow114	2.510386e-01
	memrcol99	2.937498e-01
	memrrow99	2.531463e-01
	memrcol85	3.095415e-01
	memrrow85	2.511937e-01
	memrcol72	3.255464e-01
	memrrow72	2.434063e-01
	memrcol60	3.413016e-01
	memrrow60	2.274049e-01
	memrcol49	3.561308e-01
	memrrow49	2.000138e-01
	memrcol39	3.690663e-01
	memrrow39	1.570109e-01
	memrcol30	3.787452e-01
	memrrow30	9.280261e-02
	memrcol22	3.832698e-01
	memrcol698	1.331404e-01
	memrrow698	1.378044e-01
	memrcol661	1.335722e-01
	memrrow661	1.382708e-01
	memrcol625	1.344391e-01
	memrrow625	1.392070e-01
	memrcol590	1.357485e-01
	memrrow590	1.406200e-01
	memrcol556	1.375111e-01
	memrrow556	1.425202e-01
	memrcol523	1.397416e-01
	memrrow523	1.449214e-01
	memrcol491	1.424590e-01
	memrrow491	1.478404e-01
	memrcol460	1.456863e-01
	memrrow460	1.512977e-01
	memrcol430	1.494516e-01
	memrrow430	1.553160e-01
	memrcol401	1.537881e-01
	memrrow401	1.599208e-01
	memrcol373	1.587346e-01
	memrrow373	1.651389e-01
	memrcol346	1.643358e-01
	memrrow346	1.709974e-01
	memrcol320	1.706436e-01
	memrrow320	1.775221e-01
	memrcol295	1.777166e-01
	memrrow295	1.847346e-01
	memrcol271	1.856217e-01
	memrrow271	1.926489e-01
	memrcol248	1.944338e-01
	memrrow248	2.012660e-01
	memrcol226	2.042368e-01
	memrrow226	2.105663e-01
	memrcol205	2.151232e-01
	memrrow205	2.204995e-01
	memrcol185	2.271945e-01
	memrrow185	2.309703e-01
	memrcol166	2.405597e-01
	memrrow166	2.418187e-01
	memrcol148	2.553344e-01
	memrrow148	2.527930e-01
	memrcol131	2.716375e-01
	memrrow131	2.635132e-01
	memrcol115	2.895867e-01
	memrrow115	2.734210e-01
	memrcol100	3.092910e-01
	memrrow100	2.817122e-01
	memrcol86	3.308401e-01
	memrrow86	2.872455e-01
	memrcol73	3.542886e-01
	memrrow73	2.884193e-01
	memrcol61	3.796326e-01
	memrrow61	2.830062e-01
	memrcol50	4.067773e-01
	memrrow50	2.679304e-01
	memrcol40	4.354911e-01
	memrrow40	2.389700e-01
	memrcol31	4.653409e-01
	memrrow31	1.903574e-01
	memrcol23	4.956030e-01
	memrrow23	1.142465e-01
	memrcol16	5.251395e-01
	memrcol662	1.347869e-01
	memrrow662	1.398067e-01
	memrcol626	1.352418e-01
	memrrow626	1.403086e-01
	memrcol591	1.361560e-01
	memrrow591	1.413173e-01
	memrcol557	1.375382e-01
	memrrow557	1.428421e-01
	memrcol524	1.394019e-01
	memrrow524	1.448973e-01
	memrcol492	1.417654e-01
	memrrow492	1.475020e-01
	memrcol461	1.446522e-01
	memrrow461	1.506804e-01
	memrcol431	1.480919e-01
	memrrow431	1.544616e-01
	memrcol402	1.521205e-01
	memrrow402	1.588798e-01
	memrcol374	1.567813e-01
	memrrow374	1.639738e-01
	memrcol347	1.621259e-01
	memrrow347	1.697872e-01
	memrcol321	1.682153e-01
	memrrow321	1.763667e-01
	memrcol296	1.751215e-01
	memrrow296	1.837613e-01
	memrcol272	1.829288e-01
	memrrow272	1.920199e-01
	memrcol249	1.917361e-01
	memrrow249	2.011876e-01
	memrcol227	2.016586e-01
	memrrow227	2.113005e-01
	memrcol206	2.128309e-01
	memrrow206	2.223775e-01
	memrcol186	2.254096e-01
	memrrow186	2.344093e-01
	memrcol167	2.395765e-01
	memrrow167	2.473410e-01
	memrcol149	2.555426e-01
	memrrow149	2.610491e-01
	memrcol132	2.735518e-01
	memrrow132	2.753079e-01
	memrcol116	2.938850e-01
	memrrow116	2.897423e-01
	memrcol101	3.168652e-01
	memrrow101	3.037624e-01
	memrcol87	3.428608e-01
	memrrow87	3.164722e-01
	memrcol74	3.722900e-01
	memrrow74	3.265432e-01
	memrcol62	4.056227e-01
	memrrow62	3.320394e-01
	memrcol51	4.433814e-01
	memrrow51	3.301774e-01
	memrcol41	4.861377e-01
	memrrow41	3.169950e-01
	memrcol32	5.345035e-01
	memrrow32	2.868983e-01
	memrcol24	5.891138e-01
	memrrow24	2.320410e-01
	memrcol17	6.505964e-01
	memrrow17	1.414765e-01
	memrcol11	7.195232e-01
	memrcol627	1.359313e-01
	memrrow627	1.412711e-01
	memrcol592	1.364047e-01
	memrrow592	1.418050e-01
	memrcol558	1.373567e-01
	memrrow558	1.428790e-01
	memrcol525	1.387976e-01
	memrrow525	1.445053e-01
	memrcol493	1.407432e-01
	memrrow493	1.467023e-01
	memrcol462	1.432154e-01
	memrrow462	1.494952e-01
	memrcol432	1.462426e-01
	memrrow432	1.529160e-01
	memrcol403	1.498606e-01
	memrrow403	1.570042e-01
	memrcol375	1.541134e-01
	memrrow375	1.618068e-01
	memrcol348	1.590552e-01
	memrrow348	1.673788e-01
	memrcol322	1.647510e-01
	memrrow322	1.737830e-01
	memrcol297	1.712796e-01
	memrrow297	1.810905e-01
	memrcol273	1.787354e-01
	memrrow273	1.893791e-01
	memrcol250	1.872319e-01
	memrrow250	1.987320e-01
	memrcol228	1.969053e-01
	memrrow228	2.092350e-01
	memrcol207	2.079192e-01
	memrrow207	2.209709e-01
	memrcol187	2.204704e-01
	memrrow187	2.340120e-01
	memrcol168	2.347960e-01
	memrrow168	2.484072e-01
	memrcol150	2.511822e-01
	memrrow150	2.641636e-01
	memrcol133	2.699749e-01
	memrrow133	2.812181e-01
	memrcol117	2.915935e-01
	memrrow117	2.993969e-01
	memrcol102	3.165468e-01
	memrrow102	3.183561e-01
	memrcol88	3.454540e-01
	memrrow88	3.374962e-01
	memrcol75	3.790695e-01
	memrrow75	3.558405e-01
	memrcol63	4.183145e-01
	memrrow63	3.718618e-01
	memrcol52	4.643151e-01
	memrrow52	3.832380e-01
	memrcol42	5.184506e-01
	memrrow42	3.865064e-01
	memrcol33	5.824123e-01
	memrrow33	3.765804e-01
	memrcol25	6.582764e-01
	memrrow25	3.460712e-01
	memrcol18	7.485940e-01
	memrrow18	2.843415e-01
	memrcol12	8.565019e-01
	memrrow12	1.761865e-01
	memrcol7	9.858592e-01
	memrcol593	1.365418e-01
	memrrow593	1.426464e-01
	memrcol559	1.370277e-01
	memrrow559	1.432569e-01
	memrcol526	1.380052e-01
	memrrow526	1.444903e-01
	memrcol494	1.394862e-01
	memrrow494	1.463722e-01
	memrcol463	1.414886e-01
	memrrow463	1.489427e-01
	memrcol433	1.440375e-01
	memrrow433	1.522586e-01
	memrcol404	1.471657e-01
	memrrow404	1.563966e-01
	memrcol376	1.509148e-01
	memrrow376	1.614577e-01
	memrcol349	1.553370e-01
	memrrow349	1.675730e-01
	memrcol323	1.604967e-01
	memrrow323	1.749120e-01
	memrcol298	1.664730e-01
	memrrow298	1.836925e-01
	memrcol274	1.733628e-01
	memrrow274	1.941950e-01
	memrcol251	1.812850e-01
	memrrow251	2.067806e-01
	memrcol229	1.903850e-01
	memrrow229	2.219159e-01
	memrcol208	2.008416e-01
	memrrow208	2.402042e-01
	memrcol188	2.128746e-01
	memrrow188	2.624288e-01
	memrcol169	2.267557e-01
	memrrow169	2.896087e-01
	memrcol151	2.428213e-01
	memrrow151	3.230741e-01
	memrcol134	2.614897e-01
	memrrow134	3.645646e-01
	memrcol118	2.832829e-01
	memrrow118	4.163627e-01
	memrcol103	3.088549e-01
	memrrow103	4.814688e-01
	memrcol89	3.390277e-01
	memrrow89	5.638362e-01
	memrcol76	3.748386e-01
	memrrow76	6.686845e-01
	memrcol64	4.176012e-01
	memrrow64	8.029174e-01
	memrcol53	4.689842e-01
	memrrow53	9.756819e-01
	memrcol43	5.311152e-01
	memrrow43	1.199116e+00
	memrcol34	6.067142e-01
	memrrow34	1.489351e+00
	memrcol26	6.992702e-01
	memrrow26	1.867849e+00
	memrcol19	8.132699e-01
	memrrow19	2.363204e+00
	memrcol13	9.544994e-01
	memrrow13	3.013554e+00
	memrcol8	1.130439e+00
	memrrow8	3.869808e+00
	memrcol4	1.350781e+00
	memrrow562	4.543129e-16
	memrrow529	9.138870e-16
	memrrow497	1.384171e-15
	memrrow466	1.870998e-15
	memrrow436	2.380809e-15
	memrrow407	2.920906e-15
	memrrow379	3.499764e-15
	memrrow352	4.127413e-15
	memrrow326	4.815913e-15
	memrrow301	5.579970e-15
	memrrow277	6.437716e-15
	memrrow254	7.411732e-15
	memrrow232	8.530368e-15
	memrrow211	9.829480e-15
	memrrow191	1.135471e-14
	memrrow172	1.316449e-14
	memrrow154	1.533400e-14
	memrrow137	1.796045e-14
	memrrow121	2.117004e-14
	memrrow106	2.512727e-14
	memrrow92	3.004729e-14
	memrrow79	3.621246e-14
	memrrow67	4.399445e-14
	memrrow56	5.388382e-14
	memrrow46	6.652969e-14
	memrrow37	8.279305e-14
	memrrow29	1.038183e-13
	memrrow22	1.311296e-13
	memrrow16	1.667605e-13
	memrrow11	2.134288e-13
	memrrow7	2.747724e-13
	memrrow4	5.000000e+00
	i_528	0.000000e+00
	i_496	0.000000e+00
	i_465	0.000000e+00
	i_435	0.000000e+00
	i_406	0.000000e+00
	i_378	0.000000e+00
	i_351	0.000000e+00
	i_325	0.000000e+00
	i_300	0.000000e+00
	i_276	0.000000e+00
	i_253	0.000000e+00
	i_231	0.000000e+00
	i_210	0.000000e+00
	i_190	0.000000e+00
	i_171	0.000000e+00
	i_153	0.000000e+00
	i_136	0.000000e+00
	i_120	0.000000e+00
	i_105	0.000000e+00
	i_91	0.000000e+00
	i_78	0.000000e+00
	i_66	0.000000e+00
	i_55	0.000000e+00
	i_45	0.000000e+00
	i_36	0.000000e+00
	i_28	0.000000e+00
	i_21	0.000000e+00
	i_15	0.000000e+00
	i_10	0.000000e+00
	i_6	0.000000e+00
	i_3	0.000000e+00
	i_1	0.000000e+00
	rowc_32	0.000000e+00
	rowc_31	0.000000e+00
	rowc_30	0.000000e+00
	rowc_29	0.000000e+00
	rowc_28	0.000000e+00
	rowc_27	0.000000e+00
	rowc_26	0.000000e+00
	rowc_25	0.000000e+00
	rowc_24	0.000000e+00
	rowc_23	0.000000e+00
	rowc_22	0.000000e+00
	rowc_21	0.000000e+00
	rowc_20	0.000000e+00
	rowc_19	0.000000e+00
	rowc_18	0.000000e+00
	rowc_17	0.000000e+00
	rowc_16	0.000000e+00
	rowc_15	0.000000e+00
	rowc_14	0.000000e+00
	rowc_13	0.000000e+00
	rowc_12	0.000000e+00
	rowc_11	0.000000e+00
	rowc_10	0.000000e+00
	rowc_9	0.000000e+00
	rowc_8	0.000000e+00
	rowc_7	0.000000e+00
	rowc_6	0.000000e+00
	rowc_5	0.000000e+00
	rowc_4	0.000000e+00
	rowc_3	0.000000e+00
	rowc_2	0.000000e+00
	rowc_1	5.000000e+00

	Source	Current
	------	-------

	v1#branch	-1.49441e-03
	v3#branch	2.747724e-04
	v6#branch	2.134288e-04
	v10#branch	1.667605e-04
	v15#branch	1.311296e-04
	v21#branch	1.038183e-04
	v28#branch	8.279305e-05
	v36#branch	6.652969e-05
	v45#branch	5.388382e-05
	v55#branch	4.399445e-05
	v66#branch	3.621246e-05
	v78#branch	3.004729e-05
	v91#branch	2.512727e-05
	v105#branch	2.117004e-05
	v120#branch	1.796045e-05
	v136#branch	1.533400e-05
	v153#branch	1.316449e-05
	v171#branch	1.135471e-05
	v190#branch	9.829480e-06
	v210#branch	8.530368e-06
	v231#branch	7.411732e-06
	v253#branch	6.437716e-06
	v276#branch	5.579970e-06
	v300#branch	4.815913e-06
	v325#branch	4.127413e-06
	v351#branch	3.499764e-06
	v378#branch	2.920906e-06
	v406#branch	2.380809e-06
	v435#branch	1.870998e-06
	v465#branch	1.384171e-06
	v496#branch	9.138870e-07
	v528#branch	4.543129e-07
	v2#branch	3.633576e-08
	v5#branch	5.511673e-07
	v9#branch	1.044683e-06
	v14#branch	1.511961e-06
	v20#branch	1.949508e-06
	v27#branch	2.355067e-06
	v35#branch	2.727427e-06
	v44#branch	3.066243e-06
	v54#branch	3.371879e-06
	v65#branch	3.645260e-06
	v77#branch	3.887746e-06
	v90#branch	4.101018e-06
	v104#branch	4.286986e-06
	v119#branch	4.447708e-06
	v135#branch	4.585323e-06
	v152#branch	4.701993e-06
	v170#branch	4.799862e-06
	v189#branch	4.881022e-06
	v209#branch	4.947481e-06
	v230#branch	5.001145e-06
	v252#branch	5.043802e-06
	v275#branch	5.077112e-06
	v299#branch	5.102598e-06
	v324#branch	5.121643e-06
	v350#branch	5.135489e-06
	v377#branch	5.145234e-06
	v405#branch	5.151832e-06
	v434#branch	5.156099e-06
	v464#branch	5.158708e-06
	v495#branch	5.160198e-06
	v527#branch	5.160968e-06
	v560#branch	5.161287e-06

 Resistor models (Simple linear resistor)
      model                     R

        rsh                     0
     narrow                     0
        tc1                     0
        tc2                     0
       defw                 1e-05

 Isource: Independent current source
     device                  i560                  i527                  i495
         dc                    -0                    -0                    -0
      acmag                     0                     0                     0
          v                     0                     0                     0
          p                    -0                    -0                    -0

 Isource: Independent current source
     device                  i464                  i434                  i405
         dc                    -0                    -0                    -0
      acmag                     0                     0                     0
          v                     0                     0                     0
          p                    -0                    -0                    -0

 Isource: Independent current source
     device                  i377                  i350                  i324
         dc                    -0                    -0                    -0
      acmag                     0                     0                     0
          v                     0                     0                     0
          p                    -0                    -0                    -0

 Isource: Independent current source
     device                  i299                  i275                  i252
         dc                    -0                    -0                    -0
      acmag                     0                     0                     0
          v                     0                     0                     0
          p                    -0                    -0                    -0

 Isource: Independent current source
     device                  i230                  i209                  i189
         dc                    -0                    -0                    -0
      acmag                     0                     0                     0
          v                     0                     0                     0
          p                    -0                    -0                    -0

 Isource: Independent current source
     device                  i170                  i152                  i135
         dc                    -0                    -0                    -0
      acmag                     0                     0                     0
          v                     0                     0                     0
          p                    -0                    -0                    -0

 Isource: Independent current source
     device                  i119                  i104                   i90
         dc                    -0                    -0                    -0
      acmag                     0                     0                     0
          v                     0                     0                     0
          p                    -0                    -0                    -0

 Isource: Independent current source
     device                   i77                   i65                   i54
         dc                    -0                    -0                    -0
      acmag                     0                     0                     0
          v                     0                     0                     0
          p                    -0                    -0                    -0

 Isource: Independent current source
     device                   i44                   i35                   i27
         dc                    -0                    -0                    -0
      acmag                     0                     0                     0
          v                     0                     0                     0
          p                    -0                    -0                    -0

 Isource: Independent current source
     device                   i20                   i14                    i9
         dc                    -0                    -0                    -0
      acmag                     0                     0                     0
          v                     0                     0                     0
          p                    -0                    -0                    -0

 Isource: Independent current source
     device                    i5                    i2                  i528
         dc                    -0                    -0                    -0
      acmag                     0                     0                     0
          v                     0                     0                     0
          p                    -0                    -0                    -0

 Isource: Independent current source
     device                  i496                  i465                  i435
         dc                    -0                    -0                    -0
      acmag                     0                     0                     0
          v                     0                     0                     0
          p                    -0                    -0                    -0

 Isource: Independent current source
     device                  i406                  i378                  i351
         dc                    -0                    -0                    -0
      acmag                     0                     0                     0
          v                     0                     0                     0
          p                    -0                    -0                    -0

 Isource: Independent current source
     device                  i325                  i300                  i276
         dc                    -0                    -0                    -0
      acmag                     0                     0                     0
          v                     0                     0                     0
          p                    -0                    -0                    -0

 Isource: Independent current source
     device                  i253                  i231                  i210
         dc                    -0                    -0                    -0
      acmag                     0                     0                     0
          v                     0                     0                     0
          p                    -0                    -0                    -0

 Isource: Independent current source
     device                  i190                  i171                  i153
         dc                    -0                    -0                    -0
      acmag                     0                     0                     0
          v                     0                     0                     0
          p                    -0                    -0                    -0

 Isource: Independent current source
     device                  i136                  i120                  i105
         dc                    -0                    -0                    -0
      acmag                     0                     0                     0
          v                     0                     0                     0
          p                    -0                    -0                    -0

 Isource: Independent current source
     device                   i91                   i78                   i66
         dc                    -0                    -0                    -0
      acmag                     0                     0                     0
          v                     0                     0                     0
          p                    -0                    -0                    -0

 Isource: Independent current source
     device                   i55                   i45                   i36
         dc                    -0                    -0                    -0
      acmag                     0                     0                     0
          v                     0                     0                     0
          p                    -0                    -0                    -0

 Isource: Independent current source
     device                   i28                   i21                   i15
         dc                    -0                    -0                    -0
      acmag                     0                     0                     0
          v                     0                     0                     0
          p                    -0                    -0                    -0

 Isource: Independent current source
     device                   i10                    i6                    i3
         dc                    -0                    -0                    -0
      acmag                     0                     0                     0
          v                     0                     0                     0
          p                    -0                    -0                    -0

 Isource: Independent current source
     device                    i1
         dc                    -0
      acmag                     0
          v                     0
          p                    -0

 Resistor: Simple linear resistor
     device                  r532                  r531                  r530
      model                     R                     R                     R
 resistance                 1e-09                 1e-09                 1e-09
          i           5.16129e-06           5.16097e-06            5.1602e-06
          p           2.66389e-20           2.66356e-20           2.66276e-20

 Resistor: Simple linear resistor
     device                  r529                  r528                  r527
      model                     R                     R                     R
 resistance                 1e-09                 1e-09                 1e-09
          i           5.15871e-06            5.1561e-06           5.15183e-06
          p           2.66123e-20           2.65854e-20           2.65414e-20

 Resistor: Simple linear resistor
     device                  r526                  r525                  r524
      model                     R                     R                     R
 resistance                 1e-09                 1e-09                 1e-09
          i           5.14523e-06           5.13549e-06           5.12164e-06
          p           2.64734e-20           2.63733e-20           2.62312e-20

 Resistor: Simple linear resistor
     device                  r523                  r522                  r521
      model                     R                     R                     R
 resistance                 1e-09                 1e-09                 1e-09
          i            5.1026e-06           5.07711e-06            5.0438e-06
          p           2.60365e-20           2.57771e-20           2.54399e-20

 Resistor: Simple linear resistor
     device                  r520                  r519                  r518
      model                     R                     R                     R
 resistance                 1e-09                 1e-09                 1e-09
          i           5.00114e-06           4.94748e-06           4.88102e-06
          p           2.50115e-20           2.44776e-20           2.38244e-20

 Resistor: Simple linear resistor
     device                  r517                  r516                  r515
      model                     R                     R                     R
 resistance                 1e-09                 1e-09                 1e-09
          i           4.79986e-06           4.70199e-06           4.58532e-06
          p           2.30387e-20           2.21087e-20           2.10252e-20

 Resistor: Simple linear resistor
     device                  r514                  r513                  r512
      model                     R                     R                     R
 resistance                 1e-09                 1e-09                 1e-09
          i           4.44771e-06           4.28699e-06           4.10102e-06
          p           1.97821e-20           1.83782e-20           1.68183e-20

 Resistor: Simple linear resistor
     device                  r511                  r510                   r59
      model                     R                     R                     R
 resistance                 1e-09                 1e-09                 1e-09
          i           3.88775e-06           3.64526e-06           3.37188e-06
          p           1.51146e-20           1.32879e-20           1.13696e-20

 Resistor: Simple linear resistor
     device                   r58                   r57                   r56
      model                     R                     R                     R
 resistance                 1e-09                 1e-09                 1e-09
          i           3.06624e-06           2.72743e-06           2.35507e-06
          p           9.40185e-21           7.43886e-21           5.54634e-21

 Resistor: Simple linear resistor
     device                   r55                   r54                   r53
      model                     R                     R                     R
 resistance                 1e-09                 1e-09                 1e-09
          i           1.94951e-06           1.51196e-06           1.04468e-06
          p           3.80058e-21           2.28603e-21           1.09136e-21

 Resistor: Simple linear resistor
     device                   r52                   r51                r32112
      model                     R                     R                     R
 resistance                 1e-09                 1e-09                  1000
          i           5.51167e-07           3.63358e-08           5.16129e-06
          p           3.03785e-22           1.32029e-24           2.66389e-08

 Resistor: Simple linear resistor
     device                r32047                r31983                r31920
      model                     R                     R                     R
 resistance                  1000                  1000                  1000
          i           5.16097e-06            5.1602e-06           5.15871e-06
          p           2.66356e-08           2.66276e-08           2.66123e-08

 Resistor: Simple linear resistor
     device                r31858                r31797                r31737
      model                     R                     R                     R
 resistance                  1000                  1000                  1000
          i            5.1561e-06           5.15183e-06           5.14523e-06
          p           2.65854e-08           2.65414e-08           2.64734e-08

 Resistor: Simple linear resistor
     device                r31678                r31620                r31563
      model                     R                     R                     R
 resistance                  1000                  1000                  1000
          i           5.13549e-06           5.12164e-06            5.1026e-06
          p           2.63733e-08           2.62312e-08           2.60365e-08

 Resistor: Simple linear resistor
     device                r31507                r31452                r31398
      model                     R                     R                     R
 resistance                  1000                  1000                  1000
          i           5.07711e-06            5.0438e-06           5.00114e-06
          p           2.57771e-08           2.54399e-08           2.50115e-08

 Resistor: Simple linear resistor
     device                r31345                r31293                r31242
      model                     R                     R                     R
 resistance                  1000                  1000                  1000
          i           4.94748e-06           4.88102e-06           4.79986e-06
          p           2.44776e-08           2.38244e-08           2.30387e-08

 Resistor: Simple linear resistor
     device                r31192                r31143                r31095
      model                     R                     R                     R
 resistance                  1000                  1000                  1000
          i           4.70199e-06           4.58532e-06           4.44771e-06
          p           2.21087e-08           2.10252e-08           1.97821e-08

 Resistor: Simple linear resistor
     device                r31048                r31002                 r3957
      model                     R                     R                     R
 resistance                  1000                  1000                  1000
          i           4.28699e-06           4.10102e-06           3.88775e-06
          p           1.83782e-08           1.68183e-08           1.51146e-08

 Resistor: Simple linear resistor
     device                 r3913                 r3870                 r3828
      model                     R                     R                     R
 resistance                  1000                  1000                  1000
          i           3.64526e-06           3.37188e-06           3.06624e-06
          p           1.32879e-08           1.13696e-08           9.40185e-09

 Resistor: Simple linear resistor
     device                 r3787                 r3747                 r3708
      model                     R                     R                     R
 resistance                  1000                  1000                  1000
          i           2.72743e-06           2.35507e-06           1.94951e-06
          p           7.43886e-09           5.54634e-09           3.80058e-09

 Resistor: Simple linear resistor
     device                 r3670                 r3633                 r3597
      model                     R                     R                     R
 resistance                  1000                  1000                  1000
          i           1.51196e-06           1.04468e-06           5.51167e-07
          p           2.28603e-09           1.09136e-09           3.03785e-10

 Resistor: Simple linear resistor
     device                 r3562                r32048                r31984
      model                     R                     R                     R
 resistance                  1000                  1000                  1000
          i           3.63358e-08           5.16294e-06           5.16276e-06
          p           1.32029e-12            2.6656e-08           2.66541e-08

 Resistor: Simple linear resistor
     device                r31921                r31859                r31798
      model                     R                     R                     R
 resistance                  1000                  1000                  1000
          i           5.16225e-06           5.16116e-06           5.15909e-06
          p           2.66489e-08           2.66376e-08           2.66162e-08

 Resistor: Simple linear resistor
     device                r31738                r31679                r31621
      model                     R                     R                     R
 resistance                  1000                  1000                  1000
          i           5.15549e-06           5.14969e-06           5.14088e-06
          p           2.65791e-08           2.65193e-08           2.64286e-08

 Resistor: Simple linear resistor
     device                r31564                r31508                r31453
      model                     R                     R                     R
 resistance                  1000                  1000                  1000
          i           5.12809e-06           5.11023e-06           5.08605e-06
          p           2.62973e-08           2.61145e-08           2.58679e-08

 Resistor: Simple linear resistor
     device                r31399                r31346                r31294
      model                     R                     R                     R
 resistance                  1000                  1000                  1000
          i           5.05416e-06           5.01302e-06           4.96096e-06
          p           2.55445e-08           2.51304e-08           2.46111e-08

 Resistor: Simple linear resistor
     device                r31243                r31193                r31144
      model                     R                     R                     R
 resistance                  1000                  1000                  1000
          i           4.89618e-06           4.81674e-06            4.7206e-06
          p           2.39725e-08           2.32009e-08           2.22841e-08

 Resistor: Simple linear resistor
     device                r31096                r31049                r31003
      model                     R                     R                     R
 resistance                  1000                  1000                  1000
          i           4.60565e-06           4.46969e-06            4.3105e-06
          p            2.1212e-08           1.99781e-08           1.85804e-08

 Resistor: Simple linear resistor
     device                 r3958                 r3914                 r3871
      model                     R                     R                     R
 resistance                  1000                  1000                  1000
          i            4.1259e-06           3.91376e-06           3.67208e-06
          p           1.70231e-08           1.53175e-08           1.34842e-08

 Resistor: Simple linear resistor
     device                 r3829                 r3788                 r3748
      model                     R                     R                     R
 resistance                  1000                  1000                  1000
          i           3.39909e-06           3.09335e-06           2.75382e-06
          p           1.15538e-08           9.56882e-09           7.58353e-09

 Resistor: Simple linear resistor
     device                 r3709                 r3671                 r3634
      model                     R                     R                     R
[...]
          i           7.80341e-07           1.80924e-07          -7.95786e-07
          p           6.08932e-09           3.27336e-10           6.33276e-09

 Resistor: Simple linear resistor
     device                  r175                  r163                  r152
      model                     R                     R                     R
 resistance                 10000                 10000                 10000
          i          -2.32291e-06          -4.64526e-06          -8.10771e-06
          p           5.39591e-08           2.15785e-07            6.5735e-07

 Resistor: Simple linear resistor
     device                  r142                  r133                  r125
      model                     R                     R                     R
 resistance                 10000                 10000                 10000
          i          -1.31944e-05          -2.05832e-05          -3.12205e-05
          p           1.74093e-06           4.23668e-06           9.74721e-06

 Resistor: Simple linear resistor
     device                  r118                  r112                   r17
      model                     R                     R                     R
 resistance                 10000                 10000                 10000
          i          -4.64252e-05          -6.80315e-05          -9.85859e-05
          p            2.1553e-05           4.62829e-05           9.71918e-05

 Resistor: Simple linear resistor
     device                 r1593                 r1559                 r1526
      model                     R                     R                     R
 resistance                 10000                 10000                 10000
          i           6.10466e-07           6.22923e-07           6.48505e-07
          p           3.72669e-09           3.88033e-09           4.20559e-09

 Resistor: Simple linear resistor
     device                 r1494                 r1463                 r1433
      model                     R                     R                     R
 resistance                 10000                 10000                 10000
          i           6.88598e-07           7.45404e-07           8.22103e-07
          p           4.74167e-09           5.55627e-09           6.75854e-09

 Resistor: Simple linear resistor
     device                 r1404                 r1376                 r1349
      model                     R                     R                     R
 resistance                 10000                 10000                 10000
          i           9.23087e-07           1.05428e-06            1.2236e-06
          p           8.52089e-09           1.11151e-08           1.49719e-08

 Resistor: Simple linear resistor
     device                 r1323                 r1298                 r1274
      model                     R                     R                     R
 resistance                 10000                 10000                 10000
          i           1.44153e-06           1.72195e-06           2.08321e-06
          p           2.07801e-08           2.96512e-08           4.33978e-08

 Resistor: Simple linear resistor
     device                 r1251                 r1229                 r1208
      model                     R                     R                     R
 resistance                 10000                 10000                 10000
          i           2.54957e-06           3.15309e-06           3.93626e-06
          p           6.50028e-08           9.94195e-08           1.54942e-07

 Resistor: Simple linear resistor
     device                 r1188                 r1169                 r1151
      model                     R                     R                     R
 resistance                 10000                 10000                 10000
          i           4.95542e-06           6.28531e-06           8.02528e-06
          p           2.45561e-07           3.95051e-07           6.44051e-07

 Resistor: Simple linear resistor
     device                 r1134                 r1118                 r1103
      model                     R                     R                     R
 resistance                 10000                 10000                 10000
          i           1.03075e-05            1.3308e-05           1.72614e-05
          p           1.06244e-06           1.77102e-06           2.97956e-06

 Resistor: Simple linear resistor
     device                  r189                  r176                  r164
      model                     R                     R                     R
 resistance                 10000                 10000                 10000
          i           2.24809e-05           2.93846e-05           3.85316e-05
          p           5.05389e-06           8.63454e-06           1.48469e-05

 Resistor: Simple linear resistor
     device                  r153                  r143                  r134
      model                     R                     R                     R
 resistance                 10000                 10000                 10000
          i           5.06698e-05           6.68001e-05           8.82636e-05
          p           2.56743e-05           4.46225e-05           7.79047e-05

 Resistor: Simple linear resistor
     device                  r126                  r119                  r113
      model                     R                     R                     R
 resistance                 10000                 10000                 10000
          i           0.000116858           0.000154993           0.000205905
          p           0.000136558            0.00024023            0.00042397

 Resistor: Simple linear resistor
     device                   r18                   r14                  r432
      model                     R                     R                     R
 resistance                 10000                 10000                 1e-09
          i           0.000273937           0.000364922          -4.54313e-07
          p           0.000750415            0.00133168             2.064e-22

 Resistor: Simple linear resistor
     device                  r431                  r430                  r429
      model                     R                     R                     R
 resistance                 1e-09                 1e-09                 1e-09
          i          -9.13887e-07          -1.38417e-06            -1.871e-06
          p           8.35189e-22           1.91593e-21           3.50063e-21

 Resistor: Simple linear resistor
     device                  r428                  r427                  r426
      model                     R                     R                     R
 resistance                 1e-09                 1e-09                 1e-09
          i          -2.38081e-06          -2.92091e-06          -3.49976e-06
          p           5.66825e-21           8.53169e-21           1.22484e-20

 Resistor: Simple linear resistor
     device                  r425                  r424                  r423
      model                     R                     R                     R
 resistance                 1e-09                 1e-09                 1e-09
          i          -4.12741e-06          -4.81591e-06          -5.57997e-06
          p           1.70355e-20            2.3193e-20           3.11361e-20

 Resistor: Simple linear resistor
     device                  r422                  r421                  r420
      model                     R                     R                     R
 resistance                 1e-09                 1e-09                 1e-09
          i          -6.43772e-06          -7.41173e-06          -8.53037e-06
          p           4.14442e-20           5.49338e-20           7.27672e-20

 Resistor: Simple linear resistor
     device                  r419                  r418                  r417
      model                     R                     R                     R
 resistance                 1e-09                 1e-09                 1e-09
          i          -9.82948e-06          -1.13547e-05          -1.31645e-05
          p           9.66187e-20           1.28929e-19           1.73304e-19

 Resistor: Simple linear resistor
     device                  r416                  r415                  r414
      model                     R                     R                     R
 resistance                 1e-09                 1e-09                 1e-09
          i           -1.5334e-05          -1.79604e-05            -2.117e-05
          p           2.35131e-19           3.22578e-19           4.48171e-19

 Resistor: Simple linear resistor
     device                  r413                  r412                  r411
      model                     R                     R                     R
 resistance                 1e-09                 1e-09                 1e-09
          i          -2.51273e-05          -3.00473e-05          -3.62125e-05
          p            6.3138e-19           9.02839e-19           1.31134e-18

 Resistor: Simple linear resistor
     device                  r410                   r49                   r48
      model                     R                     R                     R
 resistance                 1e-09                 1e-09                 1e-09
          i          -4.39945e-05          -5.38838e-05          -6.65297e-05
          p           1.93551e-18           2.90347e-18            4.4262e-18

 Resistor: Simple linear resistor
     device                   r47                   r46                   r45
      model                     R                     R                     R
 resistance                 1e-09                 1e-09                 1e-09
          i           -8.2793e-05          -0.000103818           -0.00013113
          p           6.85469e-18           1.07782e-17            1.7195e-17

 Resistor: Simple linear resistor
     device                   r44                   r43                   r42
      model                     R                     R                     R
 resistance                 1e-09                 1e-09                 1e-09
          i           -0.00016676          -0.000213429          -0.000274772
          p           2.78091e-17           4.55519e-17           7.54999e-17

 Resistor: Simple linear resistor
     device                   r41
      model                     R
 resistance                 1e-09
          i             0.0014948
          p           2.23444e-15

 Vsource: Independent voltage source
     device                  v560                  v527                  v495
         dc                     0                     0                     0
      acmag                     0                     0                     0
          i           5.16129e-06           5.16097e-06            5.1602e-06
          p                     0                     0                     0

 Vsource: Independent voltage source
     device                  v464                  v434                  v405
         dc                     0                     0                     0
      acmag                     0                     0                     0
          i           5.15871e-06            5.1561e-06           5.15183e-06
          p                     0                     0                     0

 Vsource: Independent voltage source
     device                  v377                  v350                  v324
         dc                     0                     0                     0
      acmag                     0                     0                     0
          i           5.14523e-06           5.13549e-06           5.12164e-06
          p                     0                     0                     0

 Vsource: Independent voltage source
     device                  v299                  v275                  v252
         dc                     0                     0                     0
      acmag                     0                     0                     0
          i            5.1026e-06           5.07711e-06            5.0438e-06
          p                     0                     0                     0

 Vsource: Independent voltage source
     device                  v230                  v209                  v189
         dc                     0                     0                     0
      acmag                     0                     0                     0
          i           5.00114e-06           4.94748e-06           4.88102e-06
          p                     0                     0                     0

 Vsource: Independent voltage source
     device                  v170                  v152                  v135
         dc                     0                     0                     0
      acmag                     0                     0                     0
          i           4.79986e-06           4.70199e-06           4.58532e-06
          p                     0                     0                     0

 Vsource: Independent voltage source
     device                  v119                  v104                   v90
         dc                     0                     0                     0
      acmag                     0                     0                     0
          i           4.44771e-06           4.28699e-06           4.10102e-06
          p                     0                     0                     0

 Vsource: Independent voltage source
     device                   v77                   v65                   v54
         dc                     0                     0                     0
      acmag                     0                     0                     0
          i           3.88775e-06           3.64526e-06           3.37188e-06
          p                     0                     0                     0

 Vsource: Independent voltage source
     device                   v44                   v35                   v27
         dc                     0                     0                     0
      acmag                     0                     0                     0
          i           3.06624e-06           2.72743e-06           2.35507e-06
          p                     0                     0                     0

 Vsource: Independent voltage source
     device                   v20                   v14                    v9
         dc                     0                     0                     0
      acmag                     0                     0                     0
          i           1.94951e-06           1.51196e-06           1.04468e-06
          p                     0                     0                     0

 Vsource: Independent voltage source
     device                    v5                    v2                  v528
         dc                     0                     0                     0
      acmag                     0                     0                     0
          i           5.51167e-07           3.63358e-08           4.54313e-07
          p                     0                     0                     0

 Vsource: Independent voltage source
     device                  v496                  v465                  v435
         dc                     0                     0                     0
      acmag                     0                     0                     0
          i           9.13887e-07           1.38417e-06             1.871e-06
          p                     0                     0                     0

 Vsource: Independent voltage source
     device                  v406                  v378                  v351
         dc                     0                     0                     0
      acmag                     0                     0                     0
          i           2.38081e-06           2.92091e-06           3.49976e-06
          p                     0                     0                     0

 Vsource: Independent voltage source
     device                  v325                  v300                  v276
         dc                     0                     0                     0
      acmag                     0                     0                     0
          i           4.12741e-06           4.81591e-06           5.57997e-06
          p                     0                     0                     0

 Vsource: Independent voltage source
     device                  v253                  v231                  v210
         dc                     0                     0                     0
      acmag                     0                     0                     0
          i           6.43772e-06           7.41173e-06           8.53037e-06
          p                     0                     0                     0

 Vsource: Independent voltage source
     device                  v190                  v171                  v153
         dc                     0                     0                     0
      acmag                     0                     0                     0
          i           9.82948e-06           1.13547e-05           1.31645e-05
          p                     0                     0                     0

 Vsource: Independent voltage source
     device                  v136                  v120                  v105
         dc                     0                     0                     0
      acmag                     0                     0                     0
          i            1.5334e-05           1.79604e-05             2.117e-05
          p                     0                     0                     0

 Vsource: Independent voltage source
     device                   v91                   v78                   v66
         dc                     0                     0                     0
      acmag                     0                     0                     0
          i           2.51273e-05           3.00473e-05           3.62125e-05
          p                     0                     0                     0

 Vsource: Independent voltage source
     device                   v55                   v45                   v36
         dc                     0                     0                     0
      acmag                     0                     0                     0
          i           4.39945e-05           5.38838e-05           6.65297e-05
          p                     0                     0                     0

 Vsource: Independent voltage source
     device                   v28                   v21                   v15
         dc                     0                     0                     0
      acmag                     0                     0                     0
          i            8.2793e-05           0.000103818            0.00013113
          p                     0                     0                     0

 Vsource: Independent voltage source
     device                   v10                    v6                    v3
         dc                     0                     0                     0
      acmag                     0                     0                     0
          i            0.00016676           0.000213429           0.000274772
          p                     0                     0                     0

 Vsource: Independent voltage source
     device                    v1
         dc                     5
      acmag                     0
          i           -0.00149441
          p           -0.00747204

CPU time since last call: 0.187 seconds.

Total CPU time: 0.187 seconds.

MacSpice memory reserved: 38797312,
MacSpice memory peak use:  7123680,
MacSpice memory in use:    6597200.

