
Circuit: *mat_array.cir


Circuit: *mat_array.cir
Date: Tue Feb 19 00:45:19  2019


Operating point information:

	Node	Voltage
	----	-------
	memrcol5201	8.567761e-14
	memrcol5099	8.579797e-14
	memrcol4998	8.603923e-14
	memrcol4898	8.640248e-14
	memrcol4799	8.688936e-14
	memrcol4701	8.750211e-14
	memrcol4604	8.824359e-14
	memrcol4508	8.911729e-14
	memrcol4413	9.012744e-14
	memrcol4319	9.127902e-14
	memrcol4226	9.257787e-14
	memrcol4134	9.403074e-14
	memrcol4043	9.564547e-14
	memrcol3953	9.743104e-14
	memrcol3864	9.939781e-14
	memrcol3776	1.015576e-13
	memrcol3689	1.039241e-13
	memrcol3603	1.065129e-13
	memrcol3518	1.093421e-13
	memrcol3434	1.124323e-13
	memrcol3351	1.158075e-13
	memrcol3269	1.194956e-13
	memrcol3188	1.235289e-13
	memrcol3108	1.279451e-13
	memrcol3029	1.327885e-13
	memrcol2951	1.381110e-13
	memrcol2874	1.439741e-13
	memrcol2798	1.504507e-13
	memrcol2723	1.576280e-13
	memrcol2649	1.656102e-13
	memrcol2576	1.745229e-13
	memrcol2504	1.845180e-13
	memrcol2433	1.957802e-13
	memrcol2363	2.085352e-13
	memrcol2294	2.230603e-13
	memrcol2226	2.396970e-13
	memrcol2159	2.588690e-13
	memrcol2093	2.811033e-13
	memrcol2028	3.070588e-13
	memrcol1964	3.375624e-13
	memrcol1901	3.736563e-13
	memrcol1839	4.166588e-13
	memrcol1778	4.682435e-13
	memrcol1718	5.305426e-13
	memrcol1659	6.062811e-13
	memrcol1601	6.989525e-13
	memrcol1544	8.130484e-13
	memrcol1488	9.543598e-13
	memrcol1433	1.130371e-12
	memrcol1379	1.350781e-12
	memrrow5202	8.694697e-02
	memrrow5101	1.737565e-01
	memrrow5001	2.602970e-01
	memrrow4902	3.464377e-01
	memrrow4804	4.320505e-01
	memrrow4707	5.170108e-01
	memrrow4611	6.011982e-01
	memrrow4516	6.844971e-01
	memrrow4422	7.667965e-01
	memrrow4329	8.479912e-01
	memrrow4237	9.279810e-01
	memrrow4146	1.006672e+00
	memrrow4056	1.083975e+00
	memrrow3967	1.159809e+00
	memrrow3879	1.234095e+00
	memrrow3792	1.306764e+00
	memrrow3706	1.377749e+00
	memrrow3621	1.446990e+00
	memrrow3537	1.514432e+00
	memrrow3454	1.580026e+00
	memrrow3372	1.643727e+00
	memrrow3291	1.705494e+00
	memrrow3211	1.765291e+00
	memrrow3132	1.823086e+00
	memrrow3054	1.878852e+00
	memrrow2977	1.932562e+00
	memrrow2901	1.984196e+00
	memrrow2826	2.033736e+00
	memrrow2752	2.081166e+00
	memrrow2679	2.126472e+00
	memrrow2607	2.169645e+00
	memrrow2536	2.210674e+00
	memrrow2466	2.249553e+00
	memrrow2397	2.286277e+00
	memrrow2329	2.320842e+00
	memrrow2262	2.353244e+00
	memrrow2196	2.383482e+00
	memrrow2131	2.411555e+00
	memrrow2067	2.437463e+00
	memrrow2004	2.461206e+00
	memrrow1942	2.482785e+00
	memrrow1881	2.502200e+00
	memrrow1821	2.519454e+00
	memrrow1762	2.534547e+00
	memrrow1704	2.547481e+00
	memrrow1647	2.558256e+00
	memrrow1591	2.566875e+00
	memrrow1536	2.573339e+00
	memrrow1482	2.577647e+00
	memrrow1429	2.579801e+00
	memrcol5100	8.567761e-02
	memrrow5100	8.694697e-02
	memrcol4999	8.579797e-02
	memrrow4999	8.707391e-02
	memrcol4899	8.603923e-02
	memrrow4899	8.732844e-02
	memrcol4800	8.640248e-02
	memrrow4800	8.771189e-02
	memrcol4702	8.688936e-02
	memrrow4702	8.822628e-02
	memrcol4605	8.750211e-02
	memrrow4605	8.887436e-02
	memrcol4509	8.824359e-02
	memrrow4509	8.965967e-02
	memrcol4414	8.911729e-02
	memrrow4414	9.058659e-02
	memrcol4320	9.012744e-02
	memrrow4320	9.166044e-02
	memrcol4227	9.127902e-02
	memrrow4227	9.288758e-02
	memrcol4135	9.257787e-02
	memrrow4135	9.427558e-02
	memrcol4044	9.403074e-02
	memrrow4044	9.583336e-02
	memrcol3954	9.564547e-02
	memrrow3954	9.757139e-02
	memrcol3865	9.743104e-02
	memrrow3865	9.950202e-02
	memrcol3777	9.939781e-02
	memrrow3777	1.016397e-01
	memrcol3690	1.015576e-01
	memrrow3690	1.040017e-01
	memrcol3604	1.039241e-01
	memrrow3604	1.066080e-01
	memrcol3519	1.065129e-01
	memrrow3519	1.094827e-01
	memrcol3435	1.093421e-01
	memrrow3435	1.126544e-01
	memrcol3352	1.124323e-01
	memrrow3352	1.161573e-01
	memrcol3270	1.158075e-01
	memrrow3270	1.200327e-01
	memrcol3189	1.194956e-01
	memrrow3189	1.243306e-01
	memrcol3109	1.235289e-01
	memrrow3109	1.291121e-01
	memrcol3030	1.279451e-01
	memrrow3030	1.344518e-01
	memrcol2952	1.327885e-01
	memrrow2952	1.404423e-01
	memrcol2875	1.381110e-01
	memrrow2875	1.471981e-01
	memrcol2799	1.439741e-01
	memrrow2799	1.548626e-01
	memrcol2724	1.504507e-01
	memrrow2724	1.636159e-01
	memrcol2650	1.576280e-01
	memrrow2650	1.736858e-01
	memrcol2577	1.656102e-01
	memrrow2577	1.853615e-01
	memrcol2505	1.745229e-01
	memrrow2505	1.990122e-01
	memrcol2434	1.845180e-01
	memrrow2434	2.151120e-01
	memrcol2364	1.957802e-01
	memrrow2364	2.342711e-01
	memrcol2295	2.085352e-01
	memrrow2295	2.572793e-01
	memrcol2227	2.230603e-01
	memrrow2227	2.851619e-01
	memrcol2160	2.396970e-01
	memrrow2160	3.192546e-01
	memrcol2094	2.588690e-01
	memrrow2094	3.613031e-01
	memrcol2029	2.811033e-01
	memrrow2029	4.135951e-01
	memrcol1965	3.070588e-01
	memrrow1965	4.791362e-01
	memrcol1902	3.375624e-01
	memrrow1902	5.618850e-01
	memrcol1840	3.736563e-01
	memrrow1840	6.670661e-01
	memrcol1779	4.166588e-01
	memrrow1779	8.015882e-01
	memrcol1719	4.682435e-01
	memrrow1719	9.746033e-01
	memrcol1660	5.305426e-01
	memrrow1660	1.198254e+00
	memrcol1602	6.062811e-01
	memrrow1602	1.488676e+00
	memrcol1545	6.989525e-01
	memrrow1545	1.867338e+00
	memrcol1489	8.130484e-01
	memrrow1489	2.362838e+00
	memrcol1434	9.543598e-01
	memrrow1434	3.013318e+00
	memrcol1380	1.130371e+00
	memrrow1380	3.869693e+00
	memrcol1327	1.350781e+00
	memrcol5000	1.712283e-01
	memrrow5000	1.737565e-01
	memrcol4900	1.714684e-01
	memrrow4900	1.740093e-01
	memrcol4801	1.719495e-01
	memrrow4801	1.745162e-01
	memrcol4703	1.726740e-01
	memrrow4703	1.752797e-01
	memrcol4606	1.736450e-01
	memrrow4606	1.763039e-01
	memrcol4510	1.748670e-01
	memrrow4510	1.775939e-01
	memrcol4415	1.763456e-01
	memrrow4415	1.791566e-01
	memrcol4321	1.780877e-01
	memrrow4321	1.810005e-01
	memrcol4228	1.801016e-01
	memrrow4228	1.831356e-01
	memrcol4136	1.823972e-01
	memrrow4136	1.855741e-01
	memrcol4045	1.849860e-01
	memrrow4045	1.883303e-01
	memrcol3955	1.878812e-01
	memrrow3955	1.914209e-01
	memrcol3866	1.910983e-01
	memrrow3866	1.948656e-01
	memrcol3778	1.946550e-01
	memrrow3778	1.986869e-01
	memrcol3691	1.985714e-01
	memrrow3691	2.029114e-01
	memrcol3605	2.028708e-01
	memrrow3605	2.075699e-01
	memrcol3520	2.075798e-01
	memrrow3520	2.126984e-01
	memrcol3436	2.127289e-01
	memrrow3436	2.183387e-01
	memrcol3353	2.183529e-01
	memrrow3353	2.245399e-01
	memrcol3271	2.244920e-01
	memrrow3271	2.313599e-01
	memrcol3190	2.311925e-01
	memrrow3190	2.388667e-01
	memrcol3110	2.385077e-01
	memrrow3110	2.471408e-01
	memrcol3031	2.464995e-01
	memrrow3031	2.562783e-01
	memrcol2953	2.552396e-01
	memrrow2953	2.663937e-01
	memrcol2876	2.648116e-01
	memrrow2876	2.776244e-01
	memrcol2800	2.753132e-01
	memrrow2800	2.901365e-01
	memrcol2725	2.868593e-01
	memrrow2725	3.041309e-01
	memrcol2651	2.995850e-01
	memrrow2651	3.198524e-01
	memrcol2578	3.136503e-01
	memrrow2578	3.376007e-01
	memrcol2506	3.292454e-01
	memrrow2506	3.577441e-01
	memrcol2435	3.465969e-01
	memrrow2435	3.807373e-01
	memrcol2365	3.659765e-01
	memrrow2365	4.071446e-01
	memrcol2296	3.877113e-01
	memrrow2296	4.376686e-01
	memrcol2228	4.121961e-01
	memrrow2228	4.731884e-01
	memrcol2161	4.399104e-01
	memrrow2161	5.148074e-01
	memrcol2095	4.714383e-01
	memrrow2095	5.639162e-01
	memrcol2030	5.074946e-01
	memrrow2030	6.222727e-01
	memrcol1966	5.489575e-01
	memrrow1966	6.921070e-01
	memrcol1903	5.969099e-01
	memrrow1903	7.762563e-01
	memrcol1841	6.526926e-01
	memrrow1841	8.783402e-01
	memrcol1780	7.179717e-01
	memrrow1780	1.002989e+00
	memrcol1720	7.948247e-01
	memrrow1720	1.156139e+00
	memrcol1661	8.858511e-01
	memrrow1661	1.345421e+00
	memrcol1603	9.943141e-01
	memrrow1603	1.580660e+00
	memrcol1546	1.124323e+00
	memrrow1546	1.874533e+00
	memrcol1490	1.281066e+00
	memrrow1490	2.243428e+00
	memrcol1435	1.471118e+00
	memrrow1435	2.708558e+00
	memrcol1381	1.702824e+00
	memrrow1381	3.297433e+00
	memrcol1328	1.986811e+00
	memrrow1328	4.045769e+00
	memrcol1276	2.336640e+00
	memrcol4901	2.565262e-01
	memrrow4901	2.602970e-01
	memrcol4802	2.568846e-01
	memrrow4802	2.606741e-01
	memrcol4704	2.576032e-01
	memrrow4704	2.614302e-01
	memrcol4607	2.586850e-01
	memrrow4607	2.625689e-01
	memrcol4511	2.601348e-01
	memrrow4511	2.640960e-01
	memrcol4416	2.619592e-01
	memrrow4416	2.660193e-01
	memrcol4322	2.641664e-01
	memrrow4322	2.683485e-01
	memrcol4229	2.667667e-01
	memrrow4229	2.710960e-01
	memrcol4137	2.697723e-01
	memrrow4137	2.742763e-01
	memrcol4046	2.731977e-01
	memrrow4046	2.779071e-01
	memrcol3956	2.770596e-01
	memrrow3956	2.820088e-01
	memrcol3867	2.813777e-01
	memrrow3867	2.866055e-01
	memrcol3779	2.861745e-01
	memrrow3779	2.917249e-01
	memrcol3692	2.914757e-01
	memrrow3692	2.973993e-01
	memrcol3606	2.973110e-01
	memrrow3606	3.036661e-01
	memrcol3521	3.037142e-01
	memrrow3521	3.105685e-01
	memrcol3437	3.107237e-01
	memrrow3437	3.181562e-01
	memrcol3354	3.183838e-01
	memrrow3354	3.264872e-01
	memrcol3272	3.267450e-01
	memrrow3272	3.356285e-01
	memrcol3191	3.358650e-01
	memrrow3191	3.456582e-01
	memrcol3111	3.458101e-01
	memrrow3111	3.566672e-01
	memrcol3032	3.566565e-01
	memrrow3032	3.687619e-01
	memrcol2954	3.684922e-01
	memrrow2954	3.820672e-01
	memrcol2877	3.814186e-01
	memrrow2877	3.967300e-01
	memrcol2801	3.955534e-01
	memrrow2801	4.129239e-01
	memrcol2726	4.110331e-01
	memrrow2726	4.308548e-01
	memrcol2652	4.280173e-01
	memrrow2652	4.507679e-01
	memrcol2579	4.466925e-01
	memrrow2579	4.729561e-01
	memrcol2507	4.672776e-01
	memrrow2507	4.977707e-01
	memrcol2436	4.900306e-01
	memrrow2436	5.256345e-01
	memrcol2366	5.152568e-01
	memrrow2366	5.570588e-01
	memrcol2297	5.433183e-01
	memrrow2297	5.926632e-01
	memrcol2229	5.746466e-01
	memrrow2229	6.332022e-01
	memrcol2162	6.097577e-01
	memrrow2162	6.795967e-01
	memrcol2096	6.492708e-01
	memrrow2096	7.329751e-01
	memrcol2031	6.939318e-01
	memrrow2031	7.947239e-01
	memrcol1967	7.446424e-01
	memrrow1967	8.665520e-01
	memrcol1904	8.024967e-01
	memrrow1904	9.505710e-01
	memrcol1842	8.688263e-01
	memrrow1842	1.049397e+00
	memrcol1781	9.452580e-01
	memrrow1781	1.166281e+00
	memrcol1721	1.033785e+00
	memrrow1721	1.305267e+00
	memrcol1662	1.136859e+00
	memrrow1662	1.471401e+00
	memrcol1604	1.257502e+00
	memrrow1604	1.670989e+00
	memrcol1547	1.399451e+00
	memrrow1547	1.911926e+00
	memrcol1491	1.567343e+00
	memrrow1491	2.204110e+00
	memrcol1436	1.766944e+00
	memrrow1436	2.559971e+00
	memrcol1382	2.005443e+00
	memrrow1382	2.995135e+00
	memrcol1329	2.291827e+00
	memrrow1329	3.529267e+00
	memrcol1277	2.637354e+00
	memrrow1277	4.187144e+00
	memrcol1226	3.056163e+00
	memrcol4803	3.414469e-01
	memrrow4803	3.464377e-01
	memrcol4705	3.419220e-01
	memrrow4705	3.469368e-01
	memrcol4608	3.428741e-01
	memrrow4608	3.479374e-01
	memrcol4512	3.443075e-01
	memrrow4512	3.494443e-01
	memrcol4417	3.462285e-01
	memrrow4417	3.514648e-01
	memrcol4323	3.486454e-01
	memrrow4323	3.540090e-01
	memrcol4230	3.515691e-01
	memrrow4230	3.570896e-01
	memrcol4138	3.550129e-01
	memrrow4138	3.607222e-01
	memrcol4047	3.589927e-01
	memrrow4047	3.649257e-01
	memrcol3957	3.635272e-01
	memrrow3957	3.697225e-01
	memrcol3868	3.686384e-01
	memrrow3868	3.751389e-01
	memrcol3780	3.743515e-01
	memrrow3780	3.812053e-01
	memrcol3693	3.806956e-01
	memrrow3693	3.879572e-01
	memrcol3607	3.877041e-01
	memrrow3607	3.954351e-01
	memrcol3522	3.954151e-01
	memrrow3522	4.036862e-01
	memrcol3438	4.038720e-01
	memrrow3438	4.127644e-01
	memrcol3355	4.131243e-01
	memrrow3355	4.227318e-01
	memrcol3273	4.232285e-01
	memrrow3273	4.336599e-01
	memrcol3192	4.342488e-01
	memrrow3192	4.456313e-01
	memrcol3112	4.462586e-01
	memrrow3112	4.587408e-01
	memrcol3033	4.593419e-01
	memrrow3033	4.730986e-01
	memrcol2955	4.735948e-01
	memrrow2955	4.888320e-01
	memrcol2878	4.891275e-01
	memrrow2878	5.060892e-01
	memrcol2802	5.060665e-01
	memrrow2802	5.250425e-01
	memrcol2727	5.245581e-01
	memrrow2727	5.458934e-01
	memrcol2653	5.447708e-01
	memrrow2653	5.688779e-01
	memrcol2580	5.669003e-01
	memrrow2580	5.942731e-01
	memrcol2508	5.911736e-01
	memrrow2508	6.224055e-01
	memrcol2437	6.178555e-01
	memrrow2437	6.536611e-01
	memrcol2367	6.472555e-01
	memrrow2367	6.884973e-01
	memrcol2298	6.797365e-01
	memrrow2298	7.274577e-01
	memrcol2230	7.157256e-01
	memrrow2230	7.711902e-01
	memrcol2163	7.557264e-01
	memrrow2163	8.204691e-01
	memrcol2097	8.003354e-01
	memrrow2097	8.762224e-01
	memrcol2032	8.502608e-01
	memrrow2032	9.395643e-01
	memrcol1968	9.063461e-01
	memrrow1968	1.011837e+00
	memrcol1905	9.695993e-01
	memrrow1905	1.094658e+00
	memrcol1843	1.041228e+00
	memrrow1843	1.189985e+00
	memrcol1782	1.122686e+00
	memrrow1782	1.300188e+00
	memrcol1722	1.215721e+00
	memrrow1722	1.428141e+00
	memrcol1663	1.322451e+00
	memrrow1663	1.577336e+00
	memrcol1605	1.445439e+00
	memrrow1605	1.752020e+00
	memrcol1548	1.587804e+00
	memrrow1548	1.957362e+00
	memrcol1492	1.753340e+00
	memrrow1492	2.199659e+00
	memrcol1437	1.946687e+00
	memrrow1437	2.486588e+00
	memrcol1383	2.173519e+00
	memrrow1383	2.827508e+00
	memrcol1330	2.440799e+00
	memrrow1330	3.233826e+00
	memrcol1278	2.757086e+00
	memrrow1278	3.719447e+00
	memrcol1227	3.132919e+00
	memrrow1227	4.301304e+00
	memrcol1177	3.581303e+00
	memrcol4706	4.258686e-01
	memrrow4706	4.320505e-01
	memrcol4609	4.264578e-01
	memrrow4609	4.326687e-01
	memrcol4513	4.276388e-01
	memrrow4513	4.339079e-01
	memrcol4418	4.294164e-01
	memrrow4418	4.357741e-01
	memrcol4324	4.317985e-01
	memrrow4324	4.382761e-01
	memrcol4231	4.347952e-01
	memrrow4231	4.414258e-01
	memrcol4139	4.384197e-01
	memrrow4139	4.452386e-01
	memrcol4048	4.426881e-01
	memrrow4048	4.497332e-01
	memrcol3958	4.476197e-01
	memrrow3958	4.549324e-01
	memrcol3869	4.532372e-01
	memrrow3869	4.608628e-01
	memrcol3781	4.595670e-01
	memrrow3781	4.675559e-01
	memrcol3694	4.666398e-01
	memrrow3694	4.750477e-01
	memrcol3608	4.744906e-01
	memrrow3608	4.833804e-01
	memrcol3523	4.831594e-01
	memrrow3523	4.926021e-01
	memrcol3439	4.926921e-01
	memrrow3439	5.027680e-01
	memrcol3356	5.031407e-01
	memrrow3356	5.139415e-01
	memrcol3274	5.145642e-01
	memrrow3274	5.261951e-01
	memrcol3193	5.270300e-01
	memrrow3193	5.396118e-01
	memrcol3113	5.406143e-01
	memrrow3113	5.542867e-01
	memrcol3034	5.554040e-01
	memrrow3034	5.703288e-01
	memrcol2956	5.714981e-01
	memrrow2956	5.878633e-01
	memrcol2879	5.890094e-01
	memrrow2879	6.070344e-01
	memrcol2803	6.080665e-01
	memrrow2803	6.280081e-01
	memrcol2728	6.288169e-01
	memrrow2728	6.509758e-01
	memrcol2654	6.514293e-01
	memrrow2654	6.761595e-01
	memrcol2581	6.760979e-01
	memrrow2581	7.038162e-01
	memrcol2509	7.030460e-01
	memrrow2509	7.342447e-01
	memrcol2438	7.325315e-01
	memrrow2438	7.677930e-01
	memrcol2368	7.648528e-01
	memrrow2368	8.048676e-01
	memrcol2299	8.003562e-01
	memrrow2299	8.459436e-01
	memrcol2231	8.394442e-01
	memrrow2231	8.915783e-01
	memrcol2164	8.825864e-01
	memrrow2164	9.424265e-01
	memrcol2098	9.303319e-01
	memrrow2098	9.992586e-01
	memrcol2033	9.833244e-01
	memrrow2033	1.062983e+00
	memrcol1969	1.042320e+00
	memrrow1969	1.134674e+00
	memrcol1906	1.108211e+00
	memrrow1906	1.215600e+00
	memrcol1844	1.182050e+00
	memrrow1844	1.307265e+00
	memrcol1783	1.265085e+00
	memrrow1783	1.411452e+00
	memrcol1723	1.358795e+00
	memrrow1723	1.530275e+00
	memrcol1664	1.464942e+00
	memrrow1664	1.666246e+00
	memrcol1606	1.585628e+00
	memrrow1606	1.822348e+00
	memrcol1549	1.723362e+00
	memrrow1549	2.002122e+00
	memrcol1493	1.881150e+00
	memrrow1493	2.209771e+00
	memrcol1438	2.062598e+00
	memrrow1438	2.450283e+00
	memrcol1384	2.272041e+00
	memrrow1384	2.729564e+00
	memrcol1331	2.514695e+00
	memrrow1331	3.054597e+00
	memrcol1279	2.796853e+00
	memrrow1279	3.433620e+00
	memrcol1228	3.126109e+00
	memrrow1228	3.876319e+00
	memrcol1178	3.511645e+00
	memrrow1178	4.394040e+00
	memrcol1129	3.964573e+00
	memrcol4610	5.096721e-01
	memrrow4610	5.170108e-01
	memrcol4514	5.103726e-01
	memrrow4514	5.177446e-01
	memrcol4419	5.117765e-01
	memrrow4419	5.192157e-01
	memrcol4325	5.138896e-01
	memrrow4325	5.214307e-01
	memrcol4232	5.167208e-01
	memrrow4232	5.243998e-01
	memrcol4140	5.202820e-01
	memrrow4140	5.281368e-01
	memrcol4049	5.245885e-01
	memrrow4049	5.326593e-01
	memrcol3959	5.296589e-01
	memrrow3959	5.379889e-01
	memrcol3870	5.355155e-01
	memrrow3870	5.441515e-01
	memrcol3782	5.421846e-01
	memrrow3782	5.511777e-01
	memrcol3695	5.496968e-01
	memrrow3695	5.591032e-01
	memrcol3609	5.580874e-01
	memrrow3609	5.679693e-01
	memrcol3524	5.673965e-01
	memrrow3524	5.778236e-01
	memrcol3440	5.776705e-01
	memrrow3440	5.887206e-01
	memrcol3357	5.889615e-01
	memrrow3357	6.007227e-01
	memrcol3275	6.013293e-01
	memrrow3275	6.139008e-01
	memrcol3194	6.148410e-01
	memrrow3194	6.283362e-01
	memrcol3114	6.295733e-01
	memrrow3114	6.441210e-01
	memrcol3035	6.456125e-01
	memrrow3035	6.613606e-01
	memrcol2957	6.630570e-01
	memrrow2957	6.801750e-01
	memrcol2880	6.820178e-01
	memrrow2880	7.007012e-01
	memrcol2804	7.026214e-01
	memrrow2804	7.230958e-01
	memrcol2729	7.250114e-01
	memrrow2729	7.475378e-01
	memrcol2655	7.493513e-01
	memrrow2655	7.742324e-01
	memrcol2582	7.758275e-01
	memrrow2582	8.034152e-01
	memrcol2510	8.046531e-01
	memrrow2510	8.353567e-01
	memrcol2439	8.360718e-01
	memrrow2439	8.703686e-01
	memrcol2369	8.703633e-01
	memrrow2369	9.088101e-01
	memrcol2300	9.078487e-01
	memrrow2300	9.510964e-01
	memrcol2232	9.488981e-01
	memrrow2232	9.977074e-01
	memrcol2165	9.939384e-01
	memrrow2165	1.049199e+00
	memrcol2099	1.043463e+00
	memrrow2099	1.106217e+00
	memrcol2034	1.098045e+00
	memrrow2034	1.169511e+00
	memrcol1970	1.158348e+00
	memrrow1970	1.239951e+00
	memrcol1907	1.225145e+00
	memrrow1907	1.318551e+00
	memrcol1845	1.299338e+00
	memrrow1845	1.406492e+00
	memrcol1784	1.381980e+00
	memrrow1784	1.505149e+00
	memrcol1724	1.474304e+00
	memrrow1724	1.616122e+00
	memrcol1665	1.577756e+00
	memrrow1665	1.741277e+00
	memrcol1607	1.694033e+00
	memrrow1607	1.882784e+00
	memrcol1550	1.825133e+00
	memrrow1550	2.043167e+00
	memrcol1494	1.973408e+00
	memrrow1494	2.225353e+00
	memrcol1439	2.141633e+00
	memrrow1439	2.432733e+00
	memrcol1385	2.333087e+00
	memrrow1385	2.669223e+00
	memrcol1332	2.551642e+00
	memrrow1332	2.939327e+00
	memrcol1280	2.801881e+00
	memrrow1280	3.248200e+00
	memrcol1229	3.089230e+00
	memrrow1229	3.601704e+00
	memrcol1179	3.420110e+00
	memrrow1179	4.006456e+00
	memrcol1130	3.802131e+00
	memrrow1130	4.469842e+00
	memrcol1082	4.244300e+00
	memrcol4515	5.927418e-01
	memrrow4515	6.011982e-01
	memrcol4420	5.935502e-01
	memrrow4420	6.020439e-01
	memrcol4326	5.951703e-01
	memrrow4326	6.037389e-01
	memrcol4233	5.976086e-01
	memrrow4233	6.062908e-01
	memrcol4141	6.008751e-01
	memrrow4141	6.097109e-01
	memrcol4050	6.049833e-01
	memrrow4050	6.140146e-01
	memrcol3960	6.099501e-01
	memrrow3960	6.192214e-01
	memrcol3871	6.157966e-01
	memrrow3871	6.253553e-01
	memrcol3783	6.225477e-01
	memrrow3783	6.324451e-01
	memrcol3696	6.302328e-01
	memrrow3696	6.405246e-01
	memrcol3610	6.388860e-01
	memrrow3610	6.496334e-01
	memrcol3525	6.485467e-01
	memrrow3525	6.598168e-01
	memrcol3441	6.592598e-01
	memrrow3441	6.711273e-01
	memrcol3358	6.710765e-01
	memrrow3358	6.836245e-01
	memrcol3276	6.840548e-01
	memrrow3276	6.973766e-01
	memrcol3195	6.982607e-01
	memrrow3195	7.124608e-01
	memrcol3115	7.137683e-01
	memrrow3115	7.289650e-01
	memrcol3036	7.306618e-01
	memrrow3036	7.469889e-01
	memrcol2958	7.490360e-01
	memrrow2958	7.666455e-01
	memrcol2881	7.689981e-01
	memrrow2881	7.880631e-01
	memrcol2805	7.906691e-01
	memrrow2805	8.113872e-01
	memrcol2730	8.141860e-01
	memrrow2730	8.367830e-01
	memrcol2656	8.397037e-01
	memrrow2656	8.644386e-01
	memrcol2583	8.673976e-01
	memrrow2583	8.945676e-01
	memrcol2511	8.974669e-01
	memrrow2511	9.274137e-01
	memrcol2440	9.301379e-01
	memrrow2440	9.632544e-01
	memrcol2370	9.656680e-01
	memrrow2370	1.002407e+00
	memrcol2301	1.004350e+00
	memrrow2301	1.045233e+00
	memrcol2233	1.046520e+00
	memrrow2233	1.092148e+00
	memrcol2166	1.092559e+00
	memrrow2166	1.143625e+00
	memrcol2100	1.142906e+00
	memrrow2100	1.200209e+00
	memrcol2035	1.198065e+00
	memrrow2035	1.262523e+00
	memrcol1971	1.258611e+00
	memrrow1971	1.331283e+00
	memrcol1908	1.325210e+00
	memrrow1908	1.407310e+00
	memrcol1846	1.398628e+00
	memrrow1846	1.491547e+00
	memrcol1785	1.479748e+00
	memrrow1785	1.585076e+00
	memrcol1725	1.569592e+00
	memrrow1725	1.689138e+00
	memrcol1666	1.669342e+00
	memrrow1666	1.805155e+00
	memrcol1608	1.780365e+00
	memrrow1608	1.934753e+00
	memrcol1551	1.904248e+00
	memrrow1551	2.079789e+00
	memrcol1495	2.042834e+00
	memrrow1495	2.242380e+00
	memrcol1440	2.198260e+00
	memrrow1440	2.424925e+00
	memrcol1386	2.373007e+00
	memrrow1386	2.630137e+00
	memrcol1333	2.569962e+00
	memrrow1333	2.861062e+00
	memrcol1281	2.792475e+00
	memrrow1281	3.121096e+00
	memrcol1230	3.044436e+00
	memrrow1230	3.413993e+00
	memrcol1180	3.330359e+00
	memrrow1180	3.743846e+00
	memrcol1131	3.655478e+00
	memrrow1131	4.115047e+00
	memrcol1083	4.025846e+00
	memrrow1083	4.532206e+00
	memrcol1036	4.448457e+00
	memrcol4421	6.749658e-01
	memrrow4421	6.844971e-01
	memrcol4327	6.758784e-01
	memrrow4327	6.854502e-01
	memrcol4234	6.777072e-01
	memrrow4234	6.873605e-01
	memrcol4142	6.804594e-01
	memrrow4142	6.902362e-01
	memrcol4051	6.841459e-01
	memrrow4051	6.940895e-01
	memrcol3961	6.887814e-01
	memrrow3961	6.989372e-01
	memrcol3872	6.943846e-01
	memrrow3872	7.048005e-01
	memrcol3784	7.009784e-01
	memrrow3784	7.117053e-01
	memrcol3697	7.085901e-01
	memrrow3697	7.196828e-01
	memrcol3611	7.172517e-01
	memrrow3611	7.287697e-01
	memrcol3526	7.270004e-01
	memrrow3526	7.390083e-01
	memrcol3442	7.378791e-01
	memrrow3442	7.504476e-01
	memrcol3359	7.499363e-01
	memrrow3359	7.631439e-01
	memrcol3277	7.632277e-01
	memrrow3277	7.771609e-01
	memrcol3196	7.778160e-01
	memrrow3196	7.925712e-01
	memrcol3116	7.937721e-01
	memrrow3116	8.094571e-01
	memrcol3037	8.111759e-01
	memrrow3037	8.279114e-01
	memrcol2959	8.301176e-01
	memrrow2959	8.480393e-01
	memrcol2882	8.506985e-01
	memrrow2882	8.699594e-01
	memrcol2806	8.730327e-01
	memrrow2806	8.938056e-01
	memrcol2731	8.972487e-01
	memrrow2731	9.197290e-01
	memrcol2657	9.234909e-01
	memrrow2657	9.479005e-01
	memrcol2584	9.519224e-01
	memrrow2584	9.785129e-01
	memrcol2512	9.827269e-01
	memrrow2512	1.011784e+00
	memrcol2441	1.016112e+00
	memrrow2441	1.047962e+00
	memrcol2371	1.052311e+00
	memrrow2371	1.087324e+00
	memrcol2302	1.091590e+00
	memrrow2302	1.130187e+00
	memrcol2234	1.134249e+00
	memrrow2234	1.176911e+00
	memrcol2167	1.180628e+00
	memrrow2167	1.227900e+00
	memrcol2101	1.231114e+00
	memrrow2101	1.283616e+00
	memrcol2036	1.286144e+00
	memrrow2036	1.344583e+00
	memrcol1972	1.346220e+00
	memrrow1972	1.411394e+00
	memrcol1909	1.411910e+00
	memrrow1909	1.484722e+00
	memrcol1847	1.483863e+00
	memrrow1847	1.565332e+00
	memrcol1786	1.562820e+00
	memrrow1786	1.654088e+00
	memrcol1726	1.649627e+00
	memrrow1726	1.751971e+00
	memrcol1667	1.745250e+00
	memrrow1667	1.860088e+00
	memrcol1609	1.850798e+00
	memrrow1609	1.979689e+00
	memrcol1552	1.967535e+00
	memrrow1552	2.112180e+00
	memrcol1496	2.096910e+00
	memrrow1496	2.259134e+00
	memrcol1441	2.240581e+00
	memrrow1441	2.422312e+00
	memrcol1387	2.400445e+00
	memrrow1387	2.603662e+00
	memrcol1334	2.578668e+00
	memrrow1334	2.805334e+00
	memrcol1282	2.777728e+00
	memrrow1282	3.029672e+00
	memrcol1231	3.000446e+00
	memrrow1231	3.279205e+00
	memrcol1181	3.250034e+00
	memrrow1181	3.556614e+00
	memrcol1132	3.530140e+00
	memrrow1132	3.864681e+00
	memrcol1084	3.844888e+00
	memrrow1084	4.206202e+00
	memrcol1037	4.198925e+00
	memrrow1037	4.583855e+00
	memrcol991	4.597460e+00
	memrcol4328	7.562366e-01
	memrrow4328	7.667965e-01
	memrcol4235	7.572494e-01
	memrrow4235	7.678525e-01
	memrcol4143	7.592788e-01
	memrrow4143	7.699688e-01
	memrcol4052	7.623325e-01
	memrrow4052	7.731542e-01
	memrcol3962	7.664223e-01
	memrrow3962	7.774216e-01
	memrcol3873	7.715640e-01
	memrrow3873	7.827890e-01
	memrcol3785	7.777776e-01
	memrrow3785	7.892790e-01
	memrcol3698	7.850876e-01
	memrrow3698	7.969190e-01
	memrcol3612	7.935232e-01
	memrrow3612	8.057422e-01
	memrcol3527	8.031189e-01
	memrrow3527	8.157873e-01
	memrcol3443	8.139141e-01
	memrrow3443	8.270992e-01
	memrcol3360	8.259545e-01
	memrrow3360	8.397297e-01
	memrcol3278	8.392921e-01
	memrrow3278	8.537376e-01
	memrcol3197	8.539856e-01
	memrrow3197	8.691902e-01
	memrcol3117	8.701016e-01
	memrrow3117	8.861631e-01
	memrcol3038	8.877149e-01
	memrrow3038	9.047423e-01
	memrcol2960	9.069100e-01
	memrrow2960	9.250241e-01
	memrcol2883	9.277813e-01
	memrrow2883	9.471174e-01
	memrcol2807	9.504349e-01
	memrrow2807	9.711443e-01
	memrcol2732	9.749901e-01
	memrrow2732	9.972422e-01
	memrcol2658	1.001580e+00
	memrrow2658	1.025565e+00
	memrcol2585	1.030355e+00
	memrrow2585	1.056287e+00
	memrcol2513	1.061482e+00
	memrrow2513	1.089602e+00
	memrcol2442	1.095150e+00
	memrrow2442	1.125728e+00
	memrcol2372	1.131571e+00
	memrrow2372	1.164913e+00
	memrcol2303	1.170983e+00
	memrrow2303	1.207431e+00
	memrcol2235	1.213653e+00
	memrrow2235	1.253595e+00
	memrcol2168	1.259882e+00
	memrrow2168	1.303752e+00
	memrcol2102	1.310009e+00
	memrrow2102	1.358297e+00
	memrcol2037	1.364418e+00
	memrrow2037	1.417670e+00
	memrcol1973	1.423538e+00
	memrrow1973	1.482369e+00
	memrcol1910	1.487858e+00
	memrrow1910	1.552951e+00
	memrcol1848	1.557928e+00
	memrrow1848	1.630042e+00
	memrcol1787	1.634369e+00
	memrrow1787	1.714344e+00
	memrcol1727	1.717885e+00
	memrrow1727	1.806644e+00
	memrcol1668	1.809270e+00
	memrrow1668	1.907820e+00
	memrcol1610	1.909425e+00
	memrrow1610	2.018851e+00
	memrcol1553	2.019365e+00
	memrrow1553	2.140824e+00
	memrcol1497	2.140240e+00
	memrrow1497	2.274944e+00
	memrcol1442	2.273349e+00
	memrrow1442	2.422533e+00
	memrcol1388	2.420155e+00
	memrrow1388	2.585041e+00
	memrcol1335	2.582308e+00
	memrrow1335	2.764038e+00
	memrcol1283	2.761663e+00
	memrrow1283	2.961208e+00
	memrcol1232	2.960299e+00
	memrrow1232	3.178332e+00
	memrcol1182	3.180540e+00
	memrrow1182	3.417260e+00
	memrcol1133	3.424975e+00
	memrrow1133	3.679859e+00
	memrcol1085	3.696467e+00
	memrrow1085	3.967947e+00
	memrcol1038	3.998167e+00
	memrrow1038	4.283183e+00
	memrcol992	4.333512e+00
	memrrow992	4.626921e+00
	memrcol947	4.706208e+00
	memrcol4236	8.364515e-01
	memrrow4236	8.479912e-01
	memrcol4144	8.375601e-01
	memrrow4144	8.491451e-01
	memrcol4053	8.397814e-01
	memrrow4053	8.514576e-01
	memrcol3963	8.431235e-01
	memrrow3963	8.549377e-01
	memrcol3874	8.475988e-01
	memrrow3874	8.595992e-01
	memrcol3786	8.532241e-01
	memrrow3786	8.654608e-01
	memrcol3699	8.600204e-01
	memrrow3699	8.725460e-01
	memrcol3613	8.680136e-01
	memrrow3613	8.808838e-01
	memrcol3528	8.772345e-01
	memrrow3528	8.905087e-01
	memrcol3444	8.877192e-01
	memrrow3444	9.014609e-01
	memrcol3361	8.995092e-01
	memrrow3361	9.137873e-01
	memrcol3279	9.126525e-01
	memrrow3279	9.275415e-01
	memrcol3198	9.272033e-01
	memrrow3198	9.427847e-01
	memrcol3118	9.432230e-01
	memrrow3118	9.595859e-01
	memrcol3039	9.607810e-01
	memrrow3039	9.780235e-01
	memrcol2961	9.799551e-01
	memrrow2961	9.981853e-01
	memrcol2884	1.000833e+00
	memrrow2884	1.020170e+00
	memrcol2808	1.023511e+00
	memrrow2808	1.044089e+00
	memrcol2733	1.048100e+00
	memrrow2733	1.070065e+00
	memrcol2659	1.074722e+00
	memrrow2659	1.098238e+00
	memrcol2586	1.103513e+00
	memrrow2586	1.128762e+00
	memrcol2514	1.134626e+00
	memrrow2514	1.161812e+00
	memrcol2443	1.168230e+00
	memrrow2443	1.197579e+00
	memrcol2373	1.204516e+00
	memrrow2373	1.236282e+00
	memrcol2304	1.243697e+00
	memrrow2304	1.278162e+00
	memrcol2236	1.286010e+00
	memrrow2236	1.323488e+00
	memrcol2169	1.331721e+00
	memrrow2169	1.372561e+00
	memrcol2103	1.381127e+00
	memrrow2103	1.425719e+00
	memrcol2038	1.434562e+00
	memrrow2038	1.483335e+00
	memrcol1974	1.492397e+00
	memrrow1974	1.545830e+00
	memrcol1911	1.555049e+00
	memrrow1911	1.613667e+00
	memrcol1849	1.622987e+00
	memrrow1849	1.687366e+00
	memrcol1788	1.696734e+00
	memrrow1788	1.767503e+00
	memrcol1728	1.776877e+00
	memrrow1728	1.854717e+00
	memrcol1669	1.864074e+00
	memrrow1669	1.949715e+00
	memrcol1611	1.959059e+00
	memrrow1611	2.053277e+00
	memrcol1554	2.062656e+00
	memrrow1554	2.166261e+00
	memrcol1498	2.175786e+00
	memrrow1498	2.289606e+00
	memrcol1443	2.299476e+00
	memrrow1443	2.424332e+00
	memrcol1389	2.434870e+00
	memrrow1389	2.571544e+00
	memrcol1336	2.583240e+00
	memrrow1336	2.732424e+00
	memrcol1284	2.745998e+00
	memrrow1284	2.908222e+00
	memrcol1233	2.924703e+00
	memrrow1233	3.100242e+00
	memrcol1183	3.121066e+00
	memrrow1183	3.309817e+00
	memrcol1134	3.336963e+00
	memrrow1134	3.538266e+00
	memrcol1086	3.574427e+00
	memrrow1086	3.786846e+00
	memrcol1039	3.835645e+00
	memrrow1039	4.056667e+00
	memrcol993	4.122944e+00
	memrrow993	4.348591e+00
	memrcol948	4.438757e+00
	memrrow948	4.663079e+00
	memrcol904	4.785578e+00
	memrcol4145	9.155124e-01
	memrrow4145	9.279810e-01
	memrcol4054	9.167123e-01
	memrrow4054	9.292279e-01
	memrcol3964	9.191163e-01
	memrrow3964	9.317263e-01
	memrcol3875	9.227330e-01
	memrrow3875	9.354858e-01
	memrcol3787	9.275753e-01
	memrrow3787	9.405205e-01
	memrcol3700	9.336605e-01
	memrrow3700	9.468497e-01
	memrcol3614	9.410106e-01
	memrrow3614	9.544978e-01
	memrcol3529	9.496526e-01
	memrrow3529	9.634947e-01
	memrcol3445	9.596183e-01
	memrrow3445	9.738758e-01
	memrcol3362	9.709453e-01
	memrrow3362	9.856826e-01
	memrcol3280	9.836766e-01
	memrrow3280	9.989632e-01
	memrcol3199	9.978616e-01
	memrrow3199	1.013772e+00
	memrcol3119	1.013556e+00
	memrrow3119	1.030173e+00
	memrcol3040	1.030824e+00
	memrrow3040	1.048235e+00
	memrcol2962	1.049736e+00
	memrrow2962	1.068038e+00
	memrcol2885	1.070372e+00
	memrrow2885	1.089671e+00
	memrcol2809	1.092821e+00
	memrrow2809	1.113234e+00
	memrcol2734	1.117184e+00
	memrrow2734	1.138838e+00
	memrcol2660	1.143569e+00
	memrrow2660	1.166607e+00
	memrcol2587	1.172103e+00
	memrrow2587	1.196681e+00
	memrcol2515	1.202921e+00
	memrrow2515	1.229212e+00
	memrcol2444	1.236178e+00
	memrrow2444	1.264372e+00
	memrcol2374	1.272043e+00
	memrrow2374	1.302352e+00
	memrcol2305	1.310705e+00
	memrrow2305	1.343363e+00
	memrcol2237	1.352376e+00
	memrrow2237	1.387639e+00
	memrcol2170	1.397290e+00
	memrrow2170	1.435441e+00
	memrcol2104	1.445706e+00
	memrrow2104	1.487059e+00
	memrcol2039	1.497914e+00
	memrrow2039	1.542812e+00
	memrcol1975	1.554237e+00
	memrrow1975	1.603055e+00
	memrcol1912	1.615032e+00
	memrrow1912	1.668180e+00
	memrcol1850	1.680698e+00
	memrrow1850	1.738620e+00
	memrcol1789	1.751678e+00
	memrrow1789	1.814852e+00
	memrcol1729	1.828464e+00
	memrrow1729	1.897401e+00
	memrcol1670	1.911602e+00
	memrrow1670	1.986844e+00
	memrcol1612	2.001698e+00
	memrrow1612	2.083811e+00
	memrcol1555	2.099426e+00
	memrrow1555	2.188990e+00
	memrcol1499	2.205527e+00
	memrrow1499	2.303125e+00
	memrcol1444	2.320825e+00
	memrrow1444	2.427020e+00
	memrcol1390	2.446225e+00
	memrrow1390	2.561534e+00
	memrcol1337	2.582723e+00
	memrrow1337	2.707579e+00
	memrcol1285	2.731407e+00
	memrrow1285	2.866109e+00
	memrcol1234	2.893467e+00
	memrrow1234	3.038110e+00
	memrcol1184	3.070189e+00
	memrrow1184	3.224575e+00
	memrcol1135	3.262959e+00
	memrrow1135	3.426479e+00
	memrcol1087	3.473255e+00
	memrrow1087	3.644734e+00
	memrcol1040	3.702637e+00
	memrrow1040	3.880138e+00
	memrcol994	3.952721e+00
	memrrow994	4.133291e+00
	memrcol949	4.225156e+00
	memrrow949	4.404502e+00
	memrcol905	4.521570e+00
	memrrow905	4.693647e+00
	memrcol862	4.843505e+00
	memrcol4055	9.933264e-01
	memrrow4055	1.006672e+00
	memrcol3965	9.946129e-01
	memrrow3965	1.008006e+00
	memrcol3876	9.971903e-01
	memrrow3876	1.010680e+00
	memrcol3788	1.001067e+00
	memrrow3788	1.014703e+00
	memrcol3701	1.006257e+00
	memrrow3701	1.020090e+00
	memrcol3615	1.012778e+00
	memrrow3615	1.026860e+00
	memrcol3530	1.020652e+00
	memrrow3530	1.035038e+00
	memrcol3446	1.029907e+00
	memrrow3446	1.044654e+00
	memrcol3363	1.040576e+00
	memrrow3363	1.055745e+00
	memrcol3281	1.052698e+00
	memrrow3281	1.068353e+00
	memrcol3200	1.066315e+00
	memrrow3200	1.082527e+00
	memrcol3120	1.081480e+00
	memrrow3120	1.098322e+00
	memrcol3041	1.098248e+00
	memrrow3041	1.115801e+00
	memrcol2963	1.116684e+00
	memrrow2963	1.135035e+00
	memrcol2886	1.136861e+00
	memrrow2886	1.156104e+00
	memrcol2810	1.158860e+00
	memrrow2810	1.179098e+00
	memrcol2735	1.182769e+00
	memrrow2735	1.204115e+00
	memrcol2661	1.208690e+00
	memrrow2661	1.231267e+00
	memrcol2588	1.236735e+00
	memrrow2588	1.260676e+00
	memrcol2516	1.267026e+00
	memrrow2516	1.292480e+00
	memrcol2445	1.299700e+00
	memrrow2445	1.326829e+00
	memrcol2375	1.334910e+00
	memrrow2375	1.363891e+00
	memrcol2306	1.372825e+00
	memrrow2306	1.403851e+00
	memrcol2238	1.413629e+00
	memrrow2238	1.446914e+00
	memrcol2171	1.457529e+00
	memrrow2171	1.493305e+00
	memrcol2105	1.504754e+00
	memrrow2105	1.543274e+00
	memrcol2040	1.555555e+00
	memrrow2040	1.597095e+00
	memrcol1976	1.610211e+00
	memrrow1976	1.655070e+00
	memrcol1913	1.669030e+00
	memrrow1913	1.717531e+00
	memrcol1851	1.732353e+00
	memrrow1851	1.784842e+00
	memrcol1790	1.800555e+00
	memrrow1790	1.857402e+00
	memrcol1730	1.874052e+00
	memrrow1730	1.935647e+00
	memrcol1671	1.953300e+00
	memrrow1671	2.020051e+00
	memrcol1613	2.038802e+00
	memrrow1613	2.111131e+00
	memrcol1556	2.131112e+00
	memrrow1556	2.209443e+00
	memrcol1500	2.230836e+00
	memrrow1500	2.315588e+00
	memrcol1445	2.338639e+00
	memrrow1445	2.430209e+00
	memrcol1391	2.455245e+00
	memrrow1391	2.553986e+00
	memrcol1338	2.581444e+00
	memrrow1338	2.687637e+00
	memrcol1286	2.718090e+00
	memrrow1286	2.831908e+00
	memrcol1235	2.866104e+00
	memrrow1235	2.987561e+00
	memrcol1185	3.026470e+00
	memrrow1185	3.155359e+00
	memrcol1136	3.200236e+00
	memrrow1136	3.336047e+00
	memrcol1088	3.388499e+00
	memrrow1088	3.530315e+00
	memrcol1041	3.592400e+00
	memrrow1041	3.738765e+00
	memrcol995	3.813097e+00
	memrrow995	3.961852e+00
	memrcol950	4.051741e+00
	memrrow950	4.199813e+00
	memrcol906	4.309434e+00
	memrrow906	4.452583e+00
	memrcol863	4.587176e+00
	memrrow863	4.719667e+00
	memrcol821	4.885783e+00
	memrcol3966	1.069806e+00
	memrrow3966	1.083975e+00
	memrcol3877	1.071174e+00
	memrrow3877	1.085392e+00
	memrcol3789	1.073915e+00
	memrrow3789	1.088231e+00
	memrcol3702	1.078038e+00
	memrrow3702	1.092501e+00
	memrcol3616	1.083556e+00
	memrrow3616	1.098218e+00
	memrcol3531	1.090487e+00
	memrrow3531	1.105401e+00
	memrcol3447	1.098855e+00
	memrrow3447	1.114075e+00
	memrcol3364	1.108687e+00
	memrrow3364	1.124272e+00
	memrcol3282	1.120018e+00
	memrrow3282	1.136026e+00
	memrcol3201	1.132885e+00
	memrrow3201	1.149382e+00
	memrcol3121	1.147333e+00
	memrrow3121	1.164388e+00
	memrcol3042	1.163413e+00
	memrrow3042	1.181098e+00
	memrcol2964	1.181184e+00
	memrrow2964	1.199578e+00
	memrcol2887	1.200709e+00
	memrrow2887	1.219897e+00
	memrcol2811	1.222062e+00
	memrrow2811	1.242134e+00
	memrcol2736	1.245323e+00
	memrrow2736	1.266379e+00
	memrcol2662	1.270582e+00
	memrrow2662	1.292729e+00
	memrcol2589	1.297940e+00
	memrrow2589	1.321294e+00
	memrcol2517	1.327506e+00
	memrrow2517	1.352194e+00
	memrcol2446	1.359403e+00
	memrrow2446	1.385564e+00
	memrcol2376	1.393766e+00
	memrrow2376	1.421549e+00
	memrcol2307	1.430745e+00
	memrrow2307	1.460313e+00
	memrcol2239	1.470504e+00
	memrrow2239	1.502033e+00
	memrcol2172	1.513224e+00
	memrrow2172	1.546906e+00
	memrcol2106	1.559105e+00
	memrrow2106	1.595148e+00
	memrcol2041	1.608366e+00
	memrrow2041	1.646994e+00
	memrcol1977	1.661250e+00
	memrrow1977	1.702702e+00
	memrcol1914	1.718021e+00
	memrrow1914	1.762556e+00
	memrcol1852	1.778973e+00
	memrrow1852	1.826863e+00
	memrcol1791	1.844425e+00
	memrrow1791	1.895960e+00
	memrcol1731	1.914727e+00
	memrrow1731	1.970210e+00
	memrcol1672	1.990266e+00
	memrrow1672	2.050008e+00
	memrcol1614	2.071461e+00
	memrrow1614	2.135780e+00
	memrcol1557	2.158770e+00
	memrrow1557	2.227985e+00
	memrcol1501	2.252692e+00
	memrrow1501	2.327111e+00
	memrcol1446	2.353771e+00
	memrrow1446	2.433678e+00
	memrcol1392	2.462593e+00
	memrrow1392	2.548237e+00
	memrcol1339	2.579791e+00
	memrrow1339	2.671360e+00
	memrcol1287	2.706044e+00
	memrrow1287	2.803639e+00
	memrcol1236	2.842076e+00
	memrrow1236	2.945678e+00
	memrcol1186	2.988655e+00
	memrrow1186	3.098078e+00
	memrcol1137	3.146585e+00
	memrrow1137	3.261420e+00
	memrcol1089	3.316702e+00
	memrrow1089	3.436245e+00
	memrcol1042	3.499858e+00
	memrrow1042	3.623024e+00
	memrcol996	3.696908e+00
	memrrow996	3.822120e+00
	memrcol951	3.908681e+00
	memrrow951	4.033738e+00
	memrcol907	4.135953e+00
	memrrow907	4.257860e+00
	memrcol864	4.379397e+00
	memrrow864	4.494174e+00
	memrcol822	4.639532e+00
	memrrow822	4.741965e+00
	memrcol781	4.916640e+00
	memrcol3878	1.144868e+00
	memrrow3878	1.159809e+00
	memrcol3790	1.146314e+00
	memrrow3790	1.161303e+00
	memrcol3703	1.149209e+00
	memrrow3703	1.164296e+00
	memrcol3617	1.153562e+00
	memrrow3617	1.168797e+00
	memrcol3532	1.159388e+00
	memrrow3532	1.174823e+00
	memrcol3448	1.166705e+00
	memrrow3448	1.182391e+00
	memrcol3365	1.175536e+00
	memrrow3365	1.191528e+00
	memrcol3283	1.185909e+00
	memrrow3283	1.202265e+00
	memrcol3202	1.197858e+00
	memrrow3202	1.214637e+00
	memrcol3122	1.211422e+00
	memrrow3122	1.228687e+00
	memrcol3043	1.226645e+00
	memrrow3043	1.244463e+00
	memrcol2965	1.243579e+00
	memrrow2965	1.262022e+00
	memrcol2888	1.262281e+00
	memrrow2888	1.281424e+00
	memrcol2812	1.282816e+00
	memrrow2812	1.302741e+00
	memrcol2737	1.305256e+00
	memrrow2737	1.326051e+00
	memrcol2663	1.329681e+00
	memrrow2663	1.351440e+00
	memrcol2590	1.356181e+00
	memrrow2590	1.379005e+00
	memrcol2518	1.384853e+00
	memrrow2518	1.408853e+00
	memrcol2447	1.415808e+00
	memrrow2447	1.441100e+00
	memrcol2377	1.449164e+00
	memrrow2377	1.475877e+00
	memrcol2308	1.485054e+00
	memrrow2308	1.513325e+00
	memrcol2240	1.523623e+00
	memrrow2240	1.553600e+00
	memrcol2173	1.565030e+00
	memrrow2173	1.596873e+00
	memrcol2107	1.609450e+00
	memrrow2107	1.643330e+00
	memrcol2042	1.657076e+00
	memrrow2042	1.693175e+00
	memrcol1978	1.708115e+00
	memrrow1978	1.746630e+00
	memrcol1915	1.762799e+00
	memrrow1915	1.803936e+00
	memrcol1853	1.821378e+00
	memrrow1853	1.865356e+00
	memrcol1792	1.884127e+00
	memrrow1792	1.931174e+00
	memrcol1732	1.951343e+00
	memrrow1732	2.001696e+00
	memrcol1673	2.023352e+00
	memrrow1673	2.077254e+00
	memrcol1615	2.100506e+00
	memrrow1615	2.158202e+00
	memrcol1558	2.183189e+00
	memrrow1558	2.244920e+00
	memrcol1502	2.271815e+00
	memrrow1502	2.337811e+00
	memrcol1447	2.366831e+00
	memrrow1447	2.437302e+00
	memrcol1393	2.468716e+00
	memrrow1393	2.543839e+00
	memrcol1340	2.577983e+00
	memrrow1340	2.657889e+00
	memrcol1288	2.695180e+00
	memrrow1288	2.779929e+00
	memrcol1237	2.820884e+00
	memrrow1237	2.910445e+00
	memrcol1187	2.955701e+00
	memrrow1187	3.049916e+00
	memrcol1138	3.100263e+00
	memrrow1138	3.198809e+00
	memrcol1090	3.255217e+00
	memrrow1090	3.357556e+00
	memrcol1043	3.421214e+00
	memrrow1043	3.526538e+00
	memrcol997	3.598901e+00
	memrrow997	3.706051e+00
	memrcol952	3.788895e+00
	memrrow952	3.896280e+00
	memrcol908	3.991760e+00
	memrrow908	4.097248e+00
	memrcol865	4.207974e+00
	memrrow865	4.308764e+00
	memrcol823	4.437883e+00
	memrrow823	4.530359e+00
	memrcol782	4.681645e+00
	memrrow782	4.761202e+00
	memrcol742	4.939160e+00
	memrcol3791	1.218437e+00
	memrrow3791	1.234095e+00
	memrcol3704	1.219954e+00
	memrrow3704	1.235661e+00
	memrcol3618	1.222993e+00
	memrrow3618	1.238798e+00
	memrcol3533	1.227563e+00
	memrrow3533	1.243515e+00
	memrcol3449	1.233677e+00
	memrrow3449	1.249827e+00
	memrcol3366	1.241355e+00
	memrrow3366	1.257754e+00
	memrcol3284	1.250618e+00
	memrrow3284	1.267321e+00
	memrcol3203	1.261495e+00
	memrrow3203	1.278558e+00
	memrcol3123	1.274020e+00
	memrrow3123	1.291502e+00
	memrcol3044	1.288232e+00
	memrrow3044	1.306193e+00
	memrcol2966	1.304175e+00
	memrrow2966	1.322681e+00
	memrcol2889	1.321900e+00
	memrrow2889	1.341019e+00
	memrcol2813	1.341463e+00
	memrrow2813	1.361270e+00
	memrcol2738	1.362929e+00
	memrrow2738	1.383501e+00
	memrcol2664	1.386370e+00
	memrrow2664	1.407789e+00
	memrcol2591	1.411863e+00
	memrrow2591	1.434219e+00
	memrcol2519	1.439497e+00
	memrrow2519	1.462885e+00
	memrcol2448	1.469367e+00
	memrrow2448	1.493890e+00
	memrcol2378	1.501581e+00
	memrrow2378	1.527347e+00
	memrcol2309	1.536254e+00
	memrrow2309	1.563380e+00
	memrcol2241	1.573515e+00
	memrrow2241	1.602126e+00
	memrcol2174	1.613503e+00
	memrrow2174	1.643734e+00
	memrcol2108	1.656372e+00
	memrrow2108	1.688364e+00
	memrcol2043	1.702289e+00
	memrrow2043	1.736193e+00
	memrcol1979	1.751437e+00
	memrrow1979	1.787413e+00
	memrcol1916	1.804013e+00
	memrrow1916	1.842231e+00
	memrcol1854	1.860235e+00
	memrrow1854	1.900870e+00
	memrcol1793	1.920338e+00
	memrrow1793	1.963573e+00
	memrcol1733	1.984576e+00
	memrrow1733	2.030599e+00
	memrcol1674	2.053226e+00
	memrrow1674	2.102227e+00
	memrcol1616	2.126585e+00
	memrrow1616	2.178756e+00
	memrcol1559	2.204976e+00
	memrrow1559	2.260502e+00
	memrcol1503	2.288745e+00
	memrrow1503	2.347800e+00
	memrcol1448	2.378262e+00
	memrrow1448	2.441004e+00
	memrcol1394	2.473922e+00
	memrrow1394	2.540482e+00
	memrcol1341	2.576148e+00
	memrrow1341	2.646617e+00
	memrcol1289	2.685383e+00
	memrrow1289	2.759798e+00
	memrcol1238	2.802094e+00
	memrrow1238	2.880420e+00
	memrcol1188	2.926768e+00
	memrrow1188	3.008875e+00
	memrcol1139	3.059905e+00
	memrrow1139	3.145541e+00
	memrcol1091	3.202017e+00
	memrrow1091	3.290771e+00
	memrcol1044	3.353614e+00
	memrrow1044	3.444876e+00
	memrcol998	3.515194e+00
	memrrow998	3.608107e+00
	memrcol953	3.687228e+00
	memrrow953	3.780630e+00
	memrcol909	3.870143e+00
	memrrow909	3.962492e+00
	memrcol866	4.064290e+00
	memrrow866	4.153590e+00
	memrcol824	4.269916e+00
	memrrow824	4.353618e+00
	memrcol783	4.487120e+00
	memrrow783	4.562015e+00
	memrcol743	4.715802e+00
	memrrow743	4.777903e+00
	memrcol704	4.955596e+00
	memrcol3705	1.290440e+00
	memrrow3705	1.306764e+00
	memrcol3619	1.292024e+00
	memrrow3619	1.308396e+00
	memrcol3534	1.295197e+00
	memrrow3534	1.311666e+00
	memrcol3450	1.299969e+00
	memrrow3450	1.316582e+00
	memrcol3367	1.306351e+00
	memrrow3367	1.323160e+00
	memrcol3285	1.314364e+00
	memrrow3285	1.331419e+00
	memrcol3204	1.324029e+00
	memrrow3204	1.341383e+00
	memrcol3124	1.335375e+00
	memrrow3124	1.353082e+00
	memrcol3045	1.348435e+00
	memrrow3045	1.366552e+00
	memrcol2967	1.363247e+00
	memrrow2967	1.381834e+00
	memrcol2890	1.379855e+00
	memrrow2890	1.398975e+00
	memrcol2814	1.398309e+00
	memrrow2814	1.418028e+00
	memrcol2739	1.418665e+00
	memrrow2739	1.439053e+00
	memrcol2665	1.440986e+00
	memrrow2665	1.462116e+00
	memrcol2592	1.465342e+00
	memrrow2592	1.487293e+00
	memrcol2520	1.491809e+00
	memrrow2520	1.514665e+00
	memrcol2449	1.520474e+00
	memrrow2449	1.544322e+00
	memrcol2379	1.551429e+00
	memrrow2379	1.576364e+00
	memrcol2310	1.584777e+00
	memrrow2310	1.610899e+00
	memrcol2242	1.620632e+00
	memrrow2242	1.648047e+00
	memrcol2175	1.659115e+00
	memrrow2175	1.687936e+00
	memrcol2109	1.700360e+00
	memrrow2109	1.730708e+00
	memrcol2044	1.744515e+00
	memrrow2044	1.776514e+00
	memrcol1980	1.791738e+00
	memrrow1980	1.825520e+00
	memrcol1917	1.842200e+00
	memrrow1917	1.877904e+00
	memrcol1855	1.896089e+00
	memrrow1855	1.933859e+00
	memrcol1794	1.953608e+00
	memrrow1794	1.993591e+00
	memrcol1734	2.014974e+00
	memrrow1734	2.057321e+00
	memrcol1675	2.080423e+00
	memrrow1675	2.125286e+00
	memrcol1617	2.150208e+00
	memrrow1617	2.197737e+00
	memrcol1560	2.224602e+00
	memrrow1560	2.274941e+00
	memrcol1504	2.303894e+00
	memrrow1504	2.357179e+00
	memrcol1449	2.388395e+00
	memrrow1449	2.444745e+00
	memrcol1395	2.478434e+00
	memrrow1395	2.537946e+00
	memrcol1342	2.574358e+00
	memrrow1342	2.637098e+00
	memrcol1290	2.676533e+00
	memrrow1290	2.742525e+00
	memrcol1239	2.785341e+00
	memrrow1239	2.854550e+00
	memrcol1189	2.901175e+00
	memrrow1189	2.973497e+00
	memrcol1140	3.024441e+00
	memrrow1140	3.099676e+00
	memrcol1092	3.155546e+00
	memrrow1092	3.233378e+00
	memrcol1045	3.294896e+00
	memrrow1045	3.374864e+00
	memrcol999	3.442885e+00
	memrrow999	3.524346e+00
	memrcol954	3.599882e+00
	memrrow954	3.681975e+00
	memrcol910	3.766216e+00
	memrrow910	3.847813e+00
	memrcol867	3.942157e+00
	memrrow867	4.021810e+00
	memrcol825	4.127890e+00
	memrrow825	4.203773e+00
	memrcol784	4.323488e+00
	memrrow784	4.393324e+00
	memrcol744	4.528869e+00
	memrrow744	4.589859e+00
	memrcol705	4.743749e+00
	memrrow705	4.792492e+00
	memrcol667	4.967592e+00
	memrcol3620	1.360810e+00
	memrrow3620	1.377749e+00
	memrcol3535	1.362457e+00
	memrrow3535	1.379442e+00
	memrcol3451	1.365755e+00
	memrrow3451	1.382835e+00
	memrcol3368	1.370713e+00
	memrrow3368	1.387935e+00
	memrcol3286	1.377345e+00
	memrrow3286	1.394758e+00
	memrcol3205	1.385668e+00
	memrrow3205	1.403322e+00
	memrcol3125	1.395705e+00
	memrrow3125	1.413651e+00
	memrcol3046	1.407484e+00
	memrrow3046	1.425775e+00
	memrcol2968	1.421037e+00
	memrrow2968	1.439729e+00
	memrcol2891	1.436402e+00
	memrrow2891	1.455551e+00
	memrcol2815	1.453622e+00
	memrrow2815	1.473288e+00
	memrcol2740	1.472746e+00
	memrrow2740	1.492992e+00
	memrcol2666	1.493828e+00
	memrrow2666	1.514720e+00
	memrcol2593	1.516929e+00
	memrrow2593	1.538538e+00
	memrcol2521	1.542119e+00
	memrrow2521	1.564516e+00
	memrcol2450	1.569470e+00
	memrrow2450	1.592734e+00
	memrcol2380	1.599066e+00
	memrrow2380	1.623279e+00
	memrcol2311	1.630997e+00
	memrrow2311	1.656244e+00
	memrcol2243	1.665361e+00
	memrrow2243	1.691735e+00
	memrcol2176	1.702267e+00
	memrrow2176	1.729863e+00
	memrcol2110	1.741832e+00
	memrrow2110	1.770750e+00
	memrcol2045	1.784183e+00
	memrrow2045	1.814529e+00
	memrcol1981	1.829458e+00
	memrrow1981	1.861343e+00
	memrcol1918	1.877808e+00
	memrrow1918	1.911346e+00
	memrcol1856	1.929393e+00
	memrrow1856	1.964702e+00
	memrcol1795	1.984388e+00
	memrrow1795	2.021589e+00
	memrcol1735	2.042982e+00
	memrrow1735	2.082196e+00
	memrcol1676	2.105375e+00
	memrrow1676	2.146725e+00
	memrcol1618	2.171784e+00
	memrrow1618	2.215388e+00
	memrcol1561	2.242438e+00
	memrrow1561	2.288412e+00
	memrcol1505	2.317585e+00
	memrrow1505	2.366034e+00
	memrcol1450	2.397483e+00
	memrrow1450	2.448500e+00
	memrcol1396	2.482410e+00
	memrrow1396	2.536068e+00
	memrcol1343	2.572655e+00
	memrrow1343	2.629002e+00
	memrcol1291	2.668519e+00
	memrrow1291	2.727570e+00
	memrcol1240	2.770319e+00
	memrrow1240	2.832044e+00
	memrcol1190	2.878378e+00
	memrrow1190	2.942690e+00
	memrcol1141	2.993024e+00
	memrrow1141	3.059767e+00
	memrcol1093	3.114590e+00
	memrrow1093	3.183518e+00
	memrcol1046	3.243403e+00
	memrrow1046	3.314162e+00
	memrcol1000	3.379778e+00
	memrrow1000	3.451883e+00
	memrcol955	3.524010e+00
	memrrow955	3.596813e+00
	memrcol911	3.676361e+00
	memrrow911	3.749024e+00
	memrcol868	3.837043e+00
	memrrow868	3.908501e+00
	memrcol826	4.006205e+00
	memrrow826	4.075125e+00
	memrcol785	4.183902e+00
	memrrow785	4.248640e+00
	memrcol745	4.370077e+00
	memrrow745	4.428628e+00
	memrcol706	4.564518e+00
	memrrow706	4.614472e+00
	memrcol668	4.766822e+00
	memrrow668	4.805312e+00
	memrcol631	4.976347e+00
	memrcol3536	1.429486e+00
	memrrow3536	1.446990e+00
	memrcol3452	1.431191e+00
	memrrow3452	1.448740e+00
	memrcol3369	1.434604e+00
	memrrow3369	1.452245e+00
	memrcol3287	1.439735e+00
	memrrow3287	1.457515e+00
	memrcol3206	1.446597e+00
	memrrow3206	1.464562e+00
	memrcol3126	1.455206e+00
	memrrow3126	1.473406e+00
	memrcol3047	1.465587e+00
	memrrow3047	1.484070e+00
	memrcol2969	1.477764e+00
	memrrow2969	1.496582e+00
	memrcol2892	1.491771e+00
	memrrow2892	1.510976e+00
	memrcol2816	1.507643e+00
	memrrow2816	1.527290e+00
	memrcol2741	1.525423e+00
	memrrow2741	1.545569e+00
	memrcol2667	1.545158e+00
	memrrow2667	1.565863e+00
	memrcol2594	1.566901e+00
	memrrow2594	1.588227e+00
	memrcol2522	1.590712e+00
	memrrow2522	1.612723e+00
	memrcol2451	1.616656e+00
	memrrow2451	1.639421e+00
	memrcol2381	1.644804e+00
	memrrow2381	1.668395e+00
	memrcol2312	1.675237e+00
	memrrow2312	1.699728e+00
	memrcol2244	1.708040e+00
	memrrow2244	1.733511e+00
	memrcol2177	1.743308e+00
	memrrow2177	1.769840e+00
	memrcol2111	1.781144e+00
	memrrow2111	1.808823e+00
	memrcol2046	1.821658e+00
	memrrow2046	1.850573e+00
	memrcol1982	1.864971e+00
	memrrow1982	1.895216e+00
	memrcol1919	1.911213e+00
	memrrow1919	1.942882e+00
	memrcol1857	1.960524e+00
	memrrow1857	1.993716e+00
	memrcol1796	2.013055e+00
	memrrow1796	2.047869e+00
	memrcol1736	2.068968e+00
	memrrow1736	2.105503e+00
	memrcol1677	2.128435e+00
	memrrow1677	2.166791e+00
	memrcol1619	2.191641e+00
	memrrow1619	2.231914e+00
	memrcol1562	2.258784e+00
	memrrow1562	2.301064e+00
	memrcol1506	2.330071e+00
	memrrow1506	2.374443e+00
	memrcol1451	2.405722e+00
	memrrow1451	2.452259e+00
	memrcol1397	2.485971e+00
	memrrow1397	2.534728e+00
	memrcol1344	2.571060e+00
	memrrow1344	2.622073e+00
	memrcol1292	2.661241e+00
	memrrow1292	2.714519e+00
	memrcol1241	2.756776e+00
	memrrow1241	2.812294e+00
	memrcol1191	2.857933e+00
	memrrow1191	2.915620e+00
	memrcol1142	2.964983e+00
	memrrow1142	3.024715e+00
	memrcol1094	3.078199e+00
	memrrow1094	3.139783e+00
	memrcol1047	3.197847e+00
	memrrow1047	3.261009e+00
	memrcol1001	3.324184e+00
	memrrow1001	3.388551e+00
	memrcol956	3.457450e+00
	memrrow956	3.522531e+00
	memrcol912	3.597855e+00
	memrrow912	3.663018e+00
	memrcol869	3.745573e+00
	memrrow869	3.810021e+00
	memrcol827	3.900725e+00
	memrrow827	3.963470e+00
	memrcol786	4.063361e+00
	memrrow786	4.123193e+00
	memrcol746	4.233441e+00
	memrrow746	4.288899e+00
	memrcol707	4.410811e+00
	memrrow707	4.460150e+00
	memrcol669	4.595172e+00
	memrrow669	4.636336e+00
	memrcol632	4.786046e+00
	memrrow632	4.816639e+00
	memrcol596	4.982737e+00
	memrcol3453	1.496412e+00
	memrrow3453	1.514432e+00
	memrcol3370	1.498170e+00
	memrrow3370	1.516234e+00
	memrcol3288	1.501689e+00
	memrrow3288	1.519843e+00
	memrcol3207	1.506979e+00
	memrrow3207	1.525266e+00
	memrcol3127	1.514052e+00
	memrrow3127	1.532519e+00
	memrcol3048	1.522925e+00
	memrrow3048	1.541618e+00
	memrcol2970	1.533620e+00
	memrrow2970	1.552586e+00
	memrcol2893	1.546162e+00
	memrrow2893	1.565451e+00
	memrcol2817	1.560584e+00
	memrrow2817	1.580245e+00
	memrcol2742	1.576919e+00
	memrrow2742	1.597005e+00
	memrcol2668	1.595209e+00
	memrrow2668	1.615774e+00
	memrcol2595	1.615500e+00
	memrrow2595	1.636599e+00
	memrcol2523	1.637843e+00
	memrrow2523	1.659535e+00
	memrcol2452	1.662294e+00
	memrrow2452	1.684639e+00
	memrcol2382	1.688917e+00
	memrrow2382	1.711978e+00
	memrcol2313	1.717780e+00
	memrrow2313	1.741623e+00
	memrcol2245	1.748959e+00
	memrrow2245	1.773652e+00
	memrcol2178	1.782537e+00
	memrrow2178	1.808151e+00
	memrcol2112	1.818602e+00
	memrrow2112	1.845211e+00
	memrcol2047	1.857252e+00
	memrrow2047	1.884932e+00
	memrcol1983	1.898592e+00
	memrrow1983	1.927420e+00
	memrcol1920	1.942734e+00
	memrrow1920	1.972792e+00
	memrcol1858	1.989800e+00
	memrrow1858	2.021170e+00
	memrcol1797	2.039921e+00
	memrrow1797	2.072684e+00
	memrcol1737	2.093236e+00
	memrrow1737	2.127475e+00
	memrcol1678	2.149893e+00
	memrrow1678	2.185690e+00
	memrcol1620	2.210052e+00
	memrrow1620	2.247484e+00
	memrcol1563	2.273880e+00
	memrrow1563	2.313021e+00
	memrcol1507	2.341556e+00
	memrrow1507	2.382473e+00
	memrcol1452	2.413266e+00
	memrrow1452	2.456016e+00
	memrcol1398	2.489207e+00
	memrrow1398	2.533835e+00
	memrcol1345	2.569583e+00
	memrrow1345	2.616116e+00
	memrcol1293	2.654608e+00
	memrrow1293	2.703050e+00
	memrcol1242	2.744499e+00
	memrrow1242	2.794829e+00
	memrcol1192	2.839480e+00
	memrrow1192	2.891640e+00
	memrcol1143	2.939778e+00
	memrrow1143	2.993668e+00
	memrcol1095	3.045616e+00
	memrrow1095	3.101084e+00
	memrcol1048	3.157215e+00
	memrrow1048	3.214048e+00
	memrcol1002	3.274788e+00
	memrrow1002	3.332695e+00
	memrcol957	3.398529e+00
	memrrow957	3.457132e+00
	memrcol913	3.528613e+00
	memrrow913	3.587430e+00
	memrcol870	3.665184e+00
	memrrow870	3.723609e+00
	memrcol828	3.808341e+00
	memrrow828	3.865631e+00
	memrcol787	3.958132e+00
	memrrow787	4.013382e+00
	memrcol747	4.114533e+00
	memrrow747	4.166658e+00
	memrcol708	4.277433e+00
	memrrow708	4.325146e+00
	memrcol670	4.446610e+00
	memrrow670	4.488406e+00
	memrcol633	4.621709e+00
	memrrow633	4.655845e+00
	memrcol597	4.802211e+00
	memrrow597	4.826698e+00
	memrcol562	4.987401e+00
	memrcol3371	1.561536e+00
	memrrow3371	1.580026e+00
	memrcol3289	1.563343e+00
	memrrow3289	1.581875e+00
	memrcol3208	1.566959e+00
	memrrow3208	1.585578e+00
	memrcol3128	1.572395e+00
	memrrow3128	1.591142e+00
	memrcol3049	1.579661e+00
	memrrow3049	1.598580e+00
	memrcol2971	1.588774e+00
	memrrow2971	1.607911e+00
	memrcol2894	1.599756e+00
	memrrow2894	1.619156e+00
	memrcol2818	1.612632e+00
	memrrow2818	1.632340e+00
	memrcol2743	1.627430e+00
	memrrow2743	1.647495e+00
	memrcol2669	1.644187e+00
	memrrow2669	1.664657e+00
	memrcol2596	1.662939e+00
	memrrow2596	1.683866e+00
	memrcol2524	1.683732e+00
	memrrow2524	1.705167e+00
	memrcol2453	1.706615e+00
	memrrow2453	1.728612e+00
	memrcol2383	1.731641e+00
	memrrow2383	1.754257e+00
	memrcol2314	1.758871e+00
	memrrow2314	1.782164e+00
	memrcol2246	1.788371e+00
	memrrow2246	1.812399e+00
	memrcol2179	1.820212e+00
	memrrow2179	1.845038e+00
	memrcol2113	1.854472e+00
	memrrow2113	1.880159e+00
	memrcol2048	1.891235e+00
	memrrow2048	1.917849e+00
	memrcol1984	1.930592e+00
	memrrow1984	1.958200e+00
	memrcol1921	1.972643e+00
	memrrow1921	2.001313e+00
	memrcol1859	2.017491e+00
	memrrow1859	2.047292e+00
	memrcol1798	2.065251e+00
	memrrow1798	2.096251e+00
	memrcol1738	2.116042e+00
	memrrow1738	2.148310e+00
	memrcol1679	2.169992e+00
	memrrow1679	2.203596e+00
	memrcol1621	2.227239e+00
	memrrow1621	2.262242e+00
	memrcol1564	2.287926e+00
	memrrow1564	2.324389e+00
	memrcol1508	2.352205e+00
	memrrow1508	2.390182e+00
	memrcol1453	2.420236e+00
	memrrow1453	2.459773e+00
	memrcol1399	2.492186e+00
	memrrow1399	2.533317e+00
	memrcol1346	2.568228e+00
	memrrow1346	2.610974e+00
	memrcol1294	2.648542e+00
	memrrow1294	2.692906e+00
	memrcol1243	2.733311e+00
	memrrow1243	2.779275e+00
	memrcol1193	2.822724e+00
	memrrow1193	2.870240e+00
	memrcol1144	2.916969e+00
	memrrow1144	2.965956e+00
	memrcol1096	3.016234e+00
	memrrow1096	3.066571e+00
	memrcol1049	3.120702e+00
	memrrow1049	3.172220e+00
	memrcol1003	3.230549e+00
	memrrow1003	3.283020e+00
	memrcol958	3.345937e+00
	memrrow958	3.399068e+00
	memrcol914	3.467013e+00
	memrrow914	3.520428e+00
	memrcol871	3.593895e+00
	memrrow871	3.647131e+00
	memrcol829	3.726669e+00
	memrrow829	3.779157e+00
	memrcol788	3.865380e+00
	memrrow788	3.916431e+00
	memrcol748	4.010014e+00
	memrrow748	4.058811e+00
	memrcol709	4.160494e+00
	memrrow709	4.206070e+00
	memrcol671	4.316654e+00
	memrrow671	4.357887e+00
	memrcol634	4.478230e+00
	memrrow634	4.513827e+00
	memrcol598	4.644833e+00
	memrrow598	4.673327e+00
	memrcol563	4.815927e+00
	memrrow563	4.835676e+00
	memrcol529	4.990805e+00
	memrcol3290	1.624811e+00
	memrrow3290	1.643727e+00
	memrcol3209	1.626662e+00
	memrrow3209	1.645619e+00
	memrcol3129	1.630367e+00
	memrrow3129	1.649406e+00
	memrcol3050	1.635935e+00
	memrrow3050	1.655097e+00
	memrcol2972	1.643377e+00
	memrrow2972	1.662704e+00
	memrcol2895	1.652710e+00
	memrrow2895	1.672244e+00
	memrcol2819	1.663953e+00
	memrrow2819	1.683737e+00
	memrcol2744	1.677130e+00
	memrrow2744	1.697209e+00
	memrcol2670	1.692271e+00
	memrrow2670	1.712689e+00
	memrcol2597	1.709407e+00
	memrrow2597	1.730210e+00
	memrcol2525	1.728576e+00
	memrrow2525	1.749812e+00
	memrcol2454	1.749821e+00
	memrrow2454	1.771538e+00
	memrcol2384	1.773187e+00
	memrrow2384	1.795435e+00
	memrcol2315	1.798726e+00
	memrrow2315	1.821557e+00
	memrcol2247	1.826497e+00
	memrrow2247	1.849962e+00
	memrcol2180	1.856559e+00
	memrrow2180	1.880714e+00
	memrcol2114	1.888982e+00
	memrrow2114	1.913881e+00
	memrcol2049	1.923838e+00
	memrrow2049	1.949538e+00
	memrcol1985	1.961206e+00
	memrrow1985	1.987765e+00
	memrcol1922	2.001172e+00
	memrrow1922	2.028647e+00
	memrcol1860	2.043827e+00
	memrrow1860	2.072278e+00
	memrcol1799	2.089269e+00
	memrrow1799	2.118753e+00
	memrcol1739	2.137601e+00
	memrrow1739	2.168177e+00
	memrcol1680	2.188936e+00
	memrrow1680	2.220658e+00
	memrcol1622	2.243389e+00
	memrrow1622	2.276312e+00
	memrcol1565	2.301085e+00
	memrrow1565	2.335257e+00
	memrcol1509	2.362154e+00
	memrrow1509	2.397620e+00
	memrcol1454	2.426733e+00
	memrrow1454	2.463530e+00
	memrcol1400	2.494963e+00
	memrrow1400	2.533120e+00
	memrcol1347	2.566993e+00
	memrrow1347	2.606525e+00
	memrcol1295	2.642975e+00
	memrrow1295	2.683883e+00
	memrcol1244	2.723064e+00
	memrrow1244	2.765332e+00
	memrcol1194	2.807419e+00
	memrrow1194	2.851008e+00
	memrcol1145	2.896198e+00
	memrrow1145	2.941043e+00
	memrcol1097	2.989559e+00
	memrrow1097	3.035563e+00
	memrcol1050	3.087656e+00
	memrrow1050	3.134682e+00
	memrcol1004	3.190636e+00
	memrrow1004	3.238505e+00
	memrcol959	3.298635e+00
	memrrow959	3.347114e+00
	memrcol915	3.411774e+00
	memrrow915	3.460571e+00
	memrcol872	3.530156e+00
	memrrow872	3.578908e+00
	memrcol830	3.653853e+00
	memrrow830	3.702121e+00
	memrcol789	3.782907e+00
	memrrow789	3.830160e+00
	memrcol749	3.917313e+00
	memrrow749	3.962924e+00
	memrcol710	4.057017e+00
	memrrow710	4.100249e+00
	memrcol672	4.201897e+00
	memrrow672	4.241898e+00
	memrcol635	4.351752e+00
	memrrow635	4.387547e+00
	memrcol599	4.506290e+00
	memrrow599	4.536775e+00
	memrcol564	4.665107e+00
	memrrow564	4.689052e+00
	memrcol530	4.827668e+00
	memrrow530	4.843723e+00
	memrcol497	4.993289e+00
	memrcol3210	1.686195e+00
	memrrow3210	1.705494e+00
	memrcol3130	1.688086e+00
	memrrow3130	1.707424e+00
	memrcol3051	1.691872e+00
	memrrow3051	1.711288e+00
	memrcol2973	1.697560e+00
	memrrow2973	1.717093e+00
	memrcol2896	1.705162e+00
	memrrow2896	1.724852e+00
	memrcol2820	1.714692e+00
	memrrow2820	1.734579e+00
	memrcol2745	1.726171e+00
	memrrow2745	1.746296e+00
	memrcol2671	1.739621e+00
	memrrow2671	1.760025e+00
	memrcol2598	1.755069e+00
	memrrow2598	1.775794e+00
	memrcol2526	1.772547e+00
	memrrow2526	1.793636e+00
	memrcol2455	1.792090e+00
	memrrow2455	1.813586e+00
	memrcol2385	1.813737e+00
	memrrow2385	1.835687e+00
	memrcol2316	1.837534e+00
	memrrow2316	1.859982e+00
	memrcol2248	1.863529e+00
	memrrow2248	1.886522e+00
	memrcol2181	1.891775e+00
	memrrow2181	1.915362e+00
	memrcol2115	1.922332e+00
	memrrow2115	1.946560e+00
	memrcol2050	1.955262e+00
	memrrow2050	1.980180e+00
	memrcol1986	1.990634e+00
	memrrow1986	2.016293e+00
	memrcol1923	2.028522e+00
	memrrow1923	2.054972e+00
	memrcol1861	2.069004e+00
	memrrow1861	2.096295e+00
	memrcol1800	2.112166e+00
	memrrow1800	2.140348e+00
	memrcol1740	2.158098e+00
	memrrow1740	2.187219e+00
	memrcol1681	2.206894e+00
	memrrow1681	2.237002e+00
	memrcol1623	2.258657e+00
	memrrow1623	2.289796e+00
	memrcol1566	2.313493e+00
	memrrow1566	2.345703e+00
	memrcol1510	2.371513e+00
	memrrow1510	2.404832e+00
	memrcol1455	2.432835e+00
	memrrow1455	2.467292e+00
	memrcol1401	2.497580e+00
	memrrow1401	2.533199e+00
	memrcol1348	2.565874e+00
	memrrow1348	2.602667e+00
	memrcol1296	2.637847e+00
	memrrow1296	2.675814e+00
	memrcol1245	2.713631e+00
	memrrow1245	2.752758e+00
	memrcol1195	2.793360e+00
	memrrow1195	2.833614e+00
	memrcol1146	2.877167e+00
	memrrow1146	2.918497e+00
	memrcol1098	2.965187e+00
	memrrow1098	3.007512e+00
	memrcol1051	3.057549e+00
	memrrow1051	3.100759e+00
	memrcol1005	3.154375e+00
	memrrow1005	3.198328e+00
	memrcol960	3.255783e+00
	memrrow960	3.300292e+00
	memrcol916	3.361873e+00
	memrrow916	3.406706e+00
	memrcol873	3.472731e+00
	memrrow873	3.517604e+00
	memrcol831	3.588423e+00
	memrrow831	3.632990e+00
	memrcol790	3.708985e+00
	memrrow790	3.752832e+00
	memrcol750	3.834419e+00
	memrrow750	3.877058e+00
	memrcol711	3.964686e+00
	memrrow711	4.005549e+00
	memrcol673	4.099697e+00
	memrrow673	4.138126e+00
	memrcol636	4.239299e+00
	memrrow636	4.274545e+00
	memrcol600	4.383270e+00
	memrrow600	4.414490e+00
	memrcol565	4.531302e+00
	memrrow565	4.557556e+00
	memrcol531	4.682987e+00
	memrrow531	4.703248e+00
	memrcol498	4.837804e+00
	memrrow498	4.850966e+00
	memrcol466	4.995102e+00
	memrcol3131	1.745648e+00
	memrrow3131	1.765291e+00
	memrcol3052	1.747576e+00
	memrrow3052	1.767255e+00
	memrcol2974	1.751434e+00
	memrrow2974	1.771188e+00
	memrcol2897	1.757231e+00
	memrrow2897	1.777095e+00
	memrcol2821	1.764977e+00
	memrrow2821	1.784989e+00
	memrcol2746	1.774686e+00
	memrrow2746	1.794885e+00
	memrcol2672	1.786377e+00
	memrrow2672	1.806800e+00
	memrcol2599	1.800071e+00
	memrrow2599	1.820757e+00
	memrcol2527	1.815795e+00
	memrrow2527	1.836784e+00
	memrcol2456	1.833578e+00
	memrrow2456	1.854909e+00
	memrcol2386	1.853454e+00
	memrrow2386	1.875167e+00
	memrcol2317	1.875459e+00
	memrrow2317	1.897596e+00
	memrcol2249	1.899637e+00
	memrrow2249	1.922239e+00
	memrcol2182	1.926032e+00
	memrrow2182	1.949142e+00
	memrcol2116	1.954696e+00
	memrrow2116	1.978356e+00
	memrcol2051	1.985682e+00
	memrrow2051	2.009937e+00
	memrcol1987	2.019050e+00
	memrrow1987	2.043942e+00
	memrcol1924	2.054864e+00
	memrrow1924	2.080437e+00
	memrcol1862	2.093192e+00
	memrrow1862	2.119490e+00
	memrcol1801	2.134107e+00
	memrrow1801	2.161172e+00
	memrcol1741	2.177687e+00
	memrrow1741	2.205560e+00
	memrcol1682	2.224015e+00
	memrrow1682	2.252736e+00
	memrcol1624	2.273177e+00
	memrrow1624	2.302784e+00
	memrcol1567	2.325265e+00
	memrrow1567	2.355793e+00
	memrcol1511	2.380376e+00
	memrrow1511	2.411854e+00
	memrcol1456	2.438610e+00
	memrrow1456	2.471063e+00
	memrcol1402	2.500070e+00
	memrrow1402	2.533518e+00
	memrcol1349	2.564866e+00
	memrrow1349	2.599317e+00
	memrcol1297	2.633106e+00
	memrrow1297	2.668561e+00
	memrcol1246	2.704905e+00
	memrrow1246	2.741351e+00
	memrcol1196	2.780374e+00
	memrrow1196	2.817786e+00
	memrcol1147	2.859630e+00
	memrrow1147	2.897962e+00
	memrcol1099	2.942783e+00
	memrrow1099	2.981971e+00
	memrcol1052	3.029944e+00
	memrrow1052	3.069899e+00
	memrcol1006	3.121217e+00
	memrrow1006	3.161822e+00
	memrcol961	3.216700e+00
	memrrow961	3.257806e+00
	memrcol917	3.316479e+00
	memrrow917	3.357900e+00
	memrcol874	3.420627e+00
	memrrow874	3.462137e+00
	memrcol832	3.529201e+00
	memrrow832	3.570525e+00
	memrcol791	3.642234e+00
	memrrow791	3.683045e+00
	memrcol751	3.759731e+00
	memrrow751	3.799646e+00
	memrcol712	3.881667e+00
	memrrow712	3.920238e+00
	memrcol674	4.007972e+00
	memrrow674	4.044688e+00
	memrcol637	4.138533e+00
	memrrow637	4.172809e+00
	memrcol601	4.273177e+00
	memrrow601	4.304358e+00
	memrcol566	4.411667e+00
	memrrow566	4.439025e+00
	memrcol532	4.553688e+00
	memrrow532	4.576428e+00
	memrcol499	4.698841e+00
	memrrow499	4.716105e+00
	memrcol467	4.846623e+00
	memrrow467	4.857508e+00
	memrcol436	4.996425e+00
	memrcol3053	1.803137e+00
	memrrow3053	1.823086e+00
	memrcol2975	1.805098e+00
	memrrow2975	1.825081e+00
	memrcol2898	1.809021e+00
	memrrow2898	1.829075e+00
	memrcol2822	1.814916e+00
	memrrow2822	1.835073e+00
	memrcol2747	1.822790e+00
	memrrow2747	1.843087e+00
	memrcol2673	1.832659e+00
	memrrow2673	1.853131e+00
	memrcol2600	1.844540e+00
	memrrow2600	1.865223e+00
	memrcol2528	1.858453e+00
	memrrow2528	1.879382e+00
	memrcol2457	1.874422e+00
	memrrow2457	1.895634e+00
	memrcol2387	1.892476e+00
	memrrow2387	1.914008e+00
	memrcol2318	1.912646e+00
	memrrow2318	1.934535e+00
	memrcol2250	1.934967e+00
	memrrow2250	1.957251e+00
	memrcol2183	1.959479e+00
	memrrow2183	1.982195e+00
	memrcol2117	1.986224e+00
	memrrow2117	2.009410e+00
	memrcol2052	2.015250e+00
	memrrow2052	2.038944e+00
	memrcol1988	2.046606e+00
	memrrow1988	2.070848e+00
	memrcol1925	2.080349e+00
	memrrow1925	2.105175e+00
	memrcol1863	2.116537e+00
	memrrow1863	2.141986e+00
	memrcol1802	2.155233e+00
	memrrow1802	2.181341e+00
	memrcol1742	2.196504e+00
	memrrow1742	2.223307e+00
	memrcol1683	2.240421e+00
	memrrow1683	2.267954e+00
	memrcol1625	2.287059e+00
	memrrow1625	2.315353e+00
	memrcol1568	2.336498e+00
	memrrow1568	2.365582e+00
	memrcol1512	2.388820e+00
	memrrow1512	2.418720e+00
	memrcol1457	2.444111e+00
	memrrow1457	2.474847e+00
	memrcol1403	2.502461e+00
	memrrow1403	2.534048e+00
	memrcol1350	2.563961e+00
	memrrow1350	2.596408e+00
	memrcol1298	2.628706e+00
	memrrow1298	2.662012e+00
	memrcol1247	2.696793e+00
	memrrow1247	2.730947e+00
	memrcol1197	2.768317e+00
	memrrow1197	2.803298e+00
	memrcol1148	2.843376e+00
	memrrow1148	2.879146e+00
	memrcol1100	2.922066e+00
	memrrow1100	2.958572e+00
	memrcol1053	3.004480e+00
	memrrow1053	3.041648e+00
	memrcol1007	3.090705e+00
	memrrow1007	3.128441e+00
	memrcol962	3.180825e+00
	memrrow962	3.219007e+00
	memrcol918	3.274913e+00
	memrrow918	3.313392e+00
	memrcol875	3.373033e+00
	memrrow875	3.411624e+00
	memrcol833	3.475231e+00
	memrrow833	3.513716e+00
	memrcol792	3.581539e+00
	memrrow792	3.619656e+00
	memrcol752	3.691963e+00
	memrrow752	3.729407e+00
	memrcol713	3.806487e+00
	memrrow713	3.842903e+00
	memrcol675	3.925058e+00
	memrrow675	3.960041e+00
	memrcol638	4.047587e+00
	memrrow638	4.080677e+00
	memrcol602	4.173942e+00
	memrrow602	4.204622e+00
	memrcol567	4.303937e+00
	memrrow567	4.331635e+00
	memrcol533	4.437327e+00
	memrrow533	4.461418e+00
	memrcol500	4.573801e+00
	memrrow500	4.593610e+00
	memrcol468	4.712968e+00
	memrrow468	4.727783e+00
	memrcol437	4.854354e+00
	memrrow437	4.863437e+00
	memrcol407	4.997391e+00
	memrcol2976	1.858632e+00
	memrrow2976	1.878852e+00
	memrcol2899	1.860621e+00
	memrrow2899	1.880874e+00
	memrcol2823	1.864603e+00
	memrrow2823	1.884921e+00
	memrcol2748	1.870584e+00
	memrrow2748	1.891000e+00
	memrcol2674	1.878574e+00
	memrrow2674	1.899120e+00
	memrcol2601	1.888586e+00
	memrrow2601	1.909295e+00
	memrcol2529	1.900635e+00
	memrrow2529	1.921541e+00
	memrcol2458	1.914742e+00
	memrrow2458	1.935878e+00
	memrcol2388	1.930928e+00
	memrrow2388	1.952328e+00
	memrcol2319	1.949221e+00
	memrrow2319	1.970918e+00
	memrcol2251	1.969650e+00
	memrrow2251	1.991678e+00
	memrcol2184	1.992247e+00
	memrrow2184	2.014640e+00
	memrcol2118	2.017050e+00
	memrrow2118	2.039842e+00
	memrcol2053	2.044098e+00
	memrrow2053	2.067323e+00
	memrcol1989	2.073434e+00
	memrrow1989	2.097127e+00
	memrcol1926	2.105107e+00
	memrrow1926	2.129300e+00
	memrcol1864	2.139165e+00
	memrrow1864	2.163892e+00
	memrcol1803	2.175665e+00
	memrrow1803	2.200957e+00
	memrcol1743	2.214663e+00
	memrrow1743	2.240552e+00
	memrcol1684	2.256220e+00
	memrrow1684	2.282735e+00
	memrcol1626	2.300401e+00
	memrrow1626	2.327570e+00
	memrcol1569	2.347275e+00
	memrrow1569	2.375121e+00
	memrcol1513	2.396912e+00
	memrrow1513	2.425458e+00
	memrcol1458	2.449385e+00
	memrrow1458	2.478648e+00
	memrcol1404	2.504773e+00
	memrrow1404	2.534765e+00
	memrcol1351	2.563153e+00
	memrrow1351	2.593882e+00
	memrcol1299	2.624607e+00
	memrrow1299	2.656071e+00
	memrcol1248	2.689216e+00
	memrrow1248	2.721406e+00
	memrcol1198	2.757064e+00
	memrrow1198	2.789961e+00
	memrcol1149	2.828232e+00
	memrrow1149	2.861805e+00
	memrcol1101	2.902802e+00
	memrrow1101	2.937007e+00
	memrcol1054	2.980852e+00
	memrrow1054	3.015629e+00
	memrcol1008	3.062460e+00
	memrrow1008	3.097729e+00
	memrcol963	3.147693e+00
	memrrow963	3.183356e+00
	memrcol919	3.236615e+00
	memrrow919	3.272549e+00
	memrcol876	3.329279e+00
	memrrow876	3.365336e+00
	memrcol834	3.425728e+00
	memrrow834	3.461728e+00
	memrcol793	3.525986e+00
	memrrow793	3.561721e+00
	memrcol753	3.630064e+00
	memrrow753	3.665287e+00
	memrcol714	3.737949e+00
	memrrow714	3.772375e+00
	memrcol676	3.849600e+00
	memrrow676	3.882905e+00
	memrcol639	3.964950e+00
	memrrow639	3.996767e+00
	memrcol603	4.083893e+00
	memrrow603	4.113809e+00
	memrcol568	4.206283e+00
	memrrow568	4.233844e+00
	memrcol534	4.331927e+00
	memrrow534	4.356634e+00
	memrcol501	4.460579e+00
	memrrow501	4.481896e+00
	memrcol469	4.591932e+00
	memrrow469	4.609289e+00
	memrcol438	4.725614e+00
	memrrow438	4.738417e+00
	memrcol408	4.861177e+00
	memrrow408	4.868826e+00
	memrcol379	4.998096e+00
	memrcol2900	1.912104e+00
	memrrow2900	1.932562e+00
	memrcol2824	1.914120e+00
	memrrow2824	1.934608e+00
	memrcol2749	1.918154e+00
	memrrow2749	1.938702e+00
	memrcol2675	1.924212e+00
	memrrow2675	1.944852e+00
	memrcol2602	1.932304e+00
	memrrow2602	1.953065e+00
	memrcol2530	1.942441e+00
	memrrow2530	1.963355e+00
	memrcol2459	1.954640e+00
	memrrow2459	1.975736e+00
	memrcol2389	1.968917e+00
	memrrow2389	1.990227e+00
	memrcol2320	1.985294e+00
	memrrow2320	2.006848e+00
	memrcol2252	2.003796e+00
	memrrow2252	2.025625e+00
	memrcol2185	2.024451e+00
	memrrow2185	2.046585e+00
	memrcol2119	2.047288e+00
	memrrow2119	2.069758e+00
	memrcol2054	2.072341e+00
	memrrow2054	2.095179e+00
	memrcol1990	2.099649e+00
	memrrow1990	2.122883e+00
	memrcol1927	2.129250e+00
	memrrow1927	2.152910e+00
	memrcol1865	2.161188e+00
	memrrow1865	2.185304e+00
	memrcol1804	2.195509e+00
	memrrow1804	2.220109e+00
	memrcol1744	2.232264e+00
	memrrow1744	2.257374e+00
	memrcol1685	2.271504e+00
	memrrow1685	2.297150e+00
	memrcol1627	2.313285e+00
	memrrow1627	2.339491e+00
	memrcol1570	2.357665e+00
	memrrow1570	2.384452e+00
	memrcol1514	2.404706e+00
	memrrow1514	2.432092e+00
	memrcol1459	2.454470e+00
	memrrow1459	2.482470e+00
	memrcol1405	2.507024e+00
	memrrow1405	2.535649e+00
	memrcol1352	2.562436e+00
	memrrow1352	2.591690e+00
	memrcol1300	2.620773e+00
	memrrow1300	2.650657e+00
	memrcol1249	2.682107e+00
	memrrow1249	2.712612e+00
	memrcol1199	2.746507e+00
	memrrow1199	2.777617e+00
	memrcol1150	2.814045e+00
	memrrow1150	2.845734e+00
	memrcol1102	2.884789e+00
	memrrow1102	2.917019e+00
	memrcol1055	2.958806e+00
	memrrow1055	2.991528e+00
	memrcol1009	3.036161e+00
	memrrow1009	3.069308e+00
	memrcol964	3.116912e+00
	memrrow964	3.150404e+00
	memrcol920	3.201114e+00
	memrrow920	3.234848e+00
	memrcol877	3.288811e+00
	memrrow877	3.322666e+00
	memrcol835	3.380040e+00
	memrrow835	3.413869e+00
	memrcol794	3.474822e+00
	memrrow794	3.508456e+00
	memrcol754	3.573168e+00
	memrrow754	3.606405e+00
	memrcol715	3.675068e+00
	memrrow715	3.707679e+00
	memrcol677	3.780491e+00
	memrrow677	3.812213e+00
	memrcol640	3.889384e+00
	memrrow640	3.919920e+00
	memrcol604	4.001661e+00
	memrrow604	4.030680e+00
	memrcol569	4.117207e+00
	memrrow569	4.144343e+00
	memrcol535	4.235868e+00
	memrrow535	4.260718e+00
	memrcol502	4.357446e+00
	memrrow502	4.379579e+00
	memrcol470	4.481699e+00
	memrrow470	4.500654e+00
	memrcol439	4.608328e+00
	memrrow439	4.623623e+00
	memrcol409	4.736979e+00
	memrrow409	4.748123e+00
	memrcol380	4.867235e+00
	memrrow380	4.873736e+00
	memrcol352	4.998610e+00
	memrcol2825	1.963531e+00
	memrrow2825	1.984196e+00
	memrcol2750	1.965569e+00
	memrrow2750	1.986263e+00
	memrcol2676	1.969649e+00
	memrrow2676	1.990399e+00
	memrcol2603	1.975775e+00
	memrrow2603	1.996610e+00
	memrcol2531	1.983957e+00
	memrrow2531	2.004904e+00
	memrcol2460	1.994205e+00
	memrrow2460	2.015293e+00
	memrcol2390	2.006534e+00
	memrrow2390	2.027791e+00
	memrcol2321	2.020961e+00
	memrrow2321	2.042414e+00
	memrcol2253	2.037505e+00
	memrrow2253	2.059183e+00
	memrcol2186	2.056189e+00
	memrrow2186	2.078120e+00
	memrcol2120	2.077038e+00
	memrrow2120	2.099250e+00
	memrcol2055	2.100081e+00
	memrrow2055	2.122600e+00
	memrcol1991	2.125349e+00
	memrrow1991	2.148203e+00
	memrcol1928	2.152876e+00
	memrrow1928	2.176091e+00
	memrcol1866	2.182699e+00
	memrrow1866	2.206301e+00
	memrcol1805	2.214857e+00
	memrrow1805	2.238871e+00
	memrcol1745	2.249393e+00
	memrrow1745	2.273842e+00
	memrcol1686	2.286351e+00
	memrrow1686	2.311258e+00
	memrcol1628	2.325780e+00
	memrrow1628	2.351165e+00
	memrcol1571	2.367729e+00
	memrrow1571	2.393610e+00
	memrcol1515	2.412250e+00
	memrrow1515	2.438644e+00
	memrcol1460	2.459398e+00
	memrrow1460	2.486317e+00
	memrcol1406	2.509229e+00
	memrrow1406	2.536682e+00
	memrcol1353	2.561801e+00
	memrrow1353	2.589792e+00
	memrcol1301	2.617173e+00
	memrrow1301	2.645701e+00
	memrcol1250	2.675404e+00
	memrrow1250	2.704464e+00
	memrcol1200	2.736556e+00
	memrrow1200	2.766132e+00
	memrcol1151	2.800687e+00
	memrrow1151	2.830758e+00
	memrcol1103	2.867857e+00
	memrrow1103	2.898390e+00
	memrcol1056	2.938123e+00
	memrrow1056	2.969076e+00
	memrcol1010	3.011539e+00
	memrrow1010	3.042858e+00
	memrcol965	3.088155e+00
	memrrow965	3.119771e+00
	memrcol921	3.168016e+00
	memrrow921	3.199846e+00
	memrcol878	3.251162e+00
	memrrow878	3.283104e+00
	memrcol836	3.337622e+00
	memrrow836	3.369557e+00
	memrcol795	3.427417e+00
	memrrow795	3.459202e+00
	memrcol755	3.520554e+00
	memrrow755	3.552027e+00
	memrcol716	3.617026e+00
	memrrow716	3.647998e+00
	memrcol678	3.716811e+00
	memrrow678	3.747067e+00
	memrcol641	3.819862e+00
	memrrow641	3.849161e+00
	memrcol605	3.926113e+00
	memrrow605	3.954186e+00
	memrcol570	4.035470e+00
	memrrow570	4.062017e+00
	memrcol536	4.147807e+00
	memrrow536	4.172504e+00
	memrcol503	4.262967e+00
	memrrow503	4.285459e+00
	memrcol471	4.380752e+00
	memrrow471	4.400665e+00
	memrcol440	4.500923e+00
	memrrow440	4.517861e+00
	memrcol410	4.623194e+00
	memrrow410	4.636751e+00
	memrcol381	4.747230e+00
	memrrow381	4.756997e+00
	memrcol353	4.872643e+00
	memrrow353	4.878220e+00
	memrcol326	4.998986e+00
	memrcol2751	2.012891e+00
	memrrow2751	2.033736e+00
	memrcol2677	2.014949e+00
	memrrow2677	2.035821e+00
	memrcol2604	2.019069e+00
	memrrow2604	2.039992e+00
	memrcol2532	2.025255e+00
	memrrow2532	2.046256e+00
	memrcol2461	2.033516e+00
	memrrow2461	2.054620e+00
	memrcol2391	2.043861e+00
	memrrow2391	2.065095e+00
	memrcol2322	2.056304e+00
	memrrow2322	2.077693e+00
	memrcol2254	2.070860e+00
	memrrow2254	2.092430e+00
	memrcol2187	2.087548e+00
	memrrow2187	2.109323e+00
	memrcol2121	2.106388e+00
	memrrow2121	2.128395e+00
	memrcol2056	2.127404e+00
	memrrow2056	2.149667e+00
	memrcol1992	2.150623e+00
	memrrow1992	2.173165e+00
	memrcol1929	2.176072e+00
	memrrow1929	2.198918e+00
	memrcol1867	2.203782e+00
	memrrow1867	2.226955e+00
	memrcol1806	2.233788e+00
	memrrow1806	2.257310e+00
	memrcol1746	2.266125e+00
	memrrow1746	2.290016e+00
	memrcol1687	2.300832e+00
	memrrow1687	2.325112e+00
	memrcol1629	2.337948e+00
	memrrow1629	2.362636e+00
	memrcol1572	2.377518e+00
	memrrow1572	2.402628e+00
	memrcol1516	2.419584e+00
	memrrow1516	2.445132e+00
	memrcol1461	2.464195e+00
	memrrow1461	2.490191e+00
	memrcol1407	2.511398e+00
	memrrow1407	2.537849e+00
	memrcol1354	2.561242e+00
	memrrow1354	2.588152e+00
	memrcol1302	2.613778e+00
	memrrow1302	2.641146e+00
	memrcol1251	2.669057e+00
	memrrow1251	2.696876e+00
	memrcol1201	2.727129e+00
	memrrow1201	2.755389e+00
	memrcol1152	2.788047e+00
	memrrow1152	2.816728e+00
	memrcol1104	2.851860e+00
	memrrow1104	2.880934e+00
	memrcol1057	2.918616e+00
	memrrow1057	2.948049e+00
	memrcol1011	2.988362e+00
	memrrow1011	3.018106e+00
	memrcol966	3.061139e+00
	memrrow966	3.091138e+00
	memrcol922	3.136987e+00
	memrrow922	3.167170e+00
	memrcol879	3.215937e+00
	memrrow879	3.246220e+00
	memrcol837	3.298016e+00
	memrrow837	3.328298e+00
	memrcol796	3.383240e+00
	memrrow796	3.413404e+00
	memrcol756	3.471615e+00
	memrrow756	3.501527e+00
	memrcol717	3.563138e+00
	memrrow717	3.592641e+00
	memrcol679	3.657787e+00
	memrrow679	3.686706e+00
	memrcol642	3.755527e+00
	memrrow642	3.783662e+00
	memrcol606	3.856302e+00
	memrrow606	3.883432e+00
	memrcol571	3.960035e+00
	memrrow571	3.985914e+00
	memrcol537	4.066624e+00
	memrrow537	4.090985e+00
	memrcol504	4.175938e+00
	memrrow504	4.198492e+00
	memrcol472	4.287818e+00
	memrrow472	4.308254e+00
	memrcol441	4.402067e+00
	memrrow441	4.420059e+00
	memrcol411	4.518453e+00
	memrrow411	4.533664e+00
	memrcol382	4.636705e+00
	memrrow382	4.648790e+00
	memrcol354	4.756505e+00
	memrrow354	4.765124e+00
	memrcol327	4.877493e+00
	memrrow327	4.882321e+00
	memrcol301	4.999260e+00
	memrcol2678	2.060166e+00
	memrrow2678	2.081166e+00
	memrcol2605	2.062243e+00
	memrrow2605	2.083266e+00
	memrcol2533	2.066397e+00
	memrrow2533	2.087468e+00
	memrcol2462	2.072635e+00
	memrrow2462	2.093777e+00
	memrcol2392	2.080964e+00
	memrrow2392	2.102201e+00
	memrcol2323	2.091393e+00
	memrrow2323	2.112748e+00
	memrcol2255	2.103934e+00
	memrrow2255	2.125431e+00
	memrcol2188	2.118602e+00
	memrrow2188	2.140264e+00
	memrcol2122	2.135413e+00
	memrrow2122	2.157262e+00
	memrcol2057	2.154387e+00
	memrrow2057	2.176446e+00
	memrcol1993	2.175544e+00
	memrrow1993	2.197836e+00
	memrcol1930	2.198910e+00
	memrrow1930	2.221454e+00
	memrcol1868	2.224510e+00
	memrrow1868	2.247327e+00
	memrcol1807	2.252371e+00
	memrrow1807	2.275482e+00
	memrcol1747	2.282525e+00
	memrrow1747	2.305948e+00
	memrcol1688	2.315004e+00
	memrrow1688	2.338756e+00
	memrcol1630	2.349842e+00
	memrrow1630	2.373940e+00
	memrcol1573	2.387077e+00
	memrrow1573	2.411533e+00
	memrcol1517	2.426744e+00
	memrrow1517	2.451572e+00
	memrcol1462	2.468886e+00
	memrrow1462	2.494094e+00
	memrcol1408	2.513541e+00
	memrrow1408	2.539136e+00
	memrcol1355	2.560753e+00
	memrrow1355	2.586738e+00
	memrcol1303	2.610564e+00
	memrrow1303	2.636939e+00
	memrcol1252	2.663018e+00
	memrrow1252	2.689776e+00
	memrcol1202	2.718159e+00
	memrrow1202	2.745290e+00
	memrcol1153	2.776029e+00
	memrrow1153	2.803517e+00
	memrcol1105	2.836671e+00
	memrrow1105	2.864492e+00
	memrcol1058	2.900125e+00
	memrrow1058	2.928250e+00
	memrcol1012	2.966432e+00
	memrrow1012	2.994820e+00
	memrcol967	3.035626e+00
	memrrow967	3.064230e+00
	memrcol923	3.107740e+00
	memrrow923	3.136499e+00
	memrcol880	3.182801e+00
	memrrow880	3.211644e+00
	memrcol838	3.260830e+00
	memrrow838	3.289674e+00
	memrcol797	3.341841e+00
	memrrow797	3.370588e+00
	memrcol757	3.425841e+00
	memrrow757	3.454377e+00
	memrcol718	3.512823e+00
	memrrow718	3.541020e+00
	memrcol680	3.602772e+00
	memrrow680	3.630482e+00
	memrcol643	3.695657e+00
	memrrow643	3.722715e+00
	memrcol607	3.791431e+00
	memrrow607	3.817654e+00
	memrcol572	3.890030e+00
	memrrow572	3.915215e+00
	memrcol538	3.991370e+00
	memrrow538	4.015295e+00
	memrcol505	4.095342e+00
	memrrow505	4.117768e+00
	memrcol473	4.201814e+00
	memrrow473	4.222483e+00
	memrcol442	4.310624e+00
	memrrow442	4.329265e+00
	memrcol412	4.421582e+00
	memrrow412	4.437911e+00
	memrcol383	4.534463e+00
	memrrow383	4.548190e+00
	memrcol355	4.649007e+00
	memrrow355	4.659841e+00
	memrcol328	4.764917e+00
	memrrow328	4.772576e+00
	memrcol302	4.881860e+00
	memrrow302	4.886077e+00
	memrcol277	4.999460e+00
	memrcol2606	2.105342e+00
	memrrow2606	2.126472e+00
	memrcol2534	2.107433e+00
	memrrow2534	2.128585e+00
	memrcol2463	2.111618e+00
	memrrow2463	2.132814e+00
	memrcol2393	2.117901e+00
	memrrow2393	2.139161e+00
	memrcol2324	2.126288e+00
	memrrow2324	2.147635e+00
	memrcol2256	2.136789e+00
	memrrow2256	2.158244e+00
	memrcol2189	2.149414e+00
	memrrow2189	2.170997e+00
	memrcol2123	2.164177e+00
	memrrow2123	2.185910e+00
	memrcol2058	2.181093e+00
	memrrow2058	2.202995e+00
	memrcol1994	2.200179e+00
	memrrow1994	2.222271e+00
	memrcol1931	2.221455e+00
	memrrow1931	2.243755e+00
	memrcol1869	2.244943e+00
	memrrow1869	2.267470e+00
	memrcol1808	2.270666e+00
	memrrow1808	2.293437e+00
	memrcol1748	2.298649e+00
	memrrow1748	2.321682e+00
	memrcol1689	2.328920e+00
	memrrow1689	2.352230e+00
	memrcol1631	2.361508e+00
	memrrow1631	2.385109e+00
	memrcol1574	2.396443e+00
	memrrow1574	2.420347e+00
	memrcol1518	2.433759e+00
	memrrow1518	2.457977e+00
	memrcol1463	2.473488e+00
	memrrow1463	2.498028e+00
	memrcol1409	2.515666e+00
	memrrow1409	2.540533e+00
	memrcol1356	2.560328e+00
	memrrow1356	2.585524e+00
	memrcol1304	2.607510e+00
	memrrow1304	2.633036e+00
	memrcol1253	2.657249e+00
	memrrow1253	2.683100e+00
	memrcol1203	2.709583e+00
	memrrow1203	2.735749e+00
	memrcol1154	2.764548e+00
	memrrow1154	2.791015e+00
	memrcol1106	2.822179e+00
	memrrow1106	2.848927e+00
	memrcol1059	2.882512e+00
	memrrow1059	2.909514e+00
	memrcol1013	2.945578e+00
	memrrow1013	2.972801e+00
	memrcol968	3.011409e+00
	memrrow968	3.038811e+00
	memrcol924	3.080030e+00
	memrrow924	3.107561e+00
	memrcol881	3.151465e+00
	memrrow881	3.179064e+00
	memrcol839	3.225730e+00
	memrrow839	3.253327e+00
	memrcol798	3.302838e+00
	memrrow798	3.330349e+00
	memrcol758	3.382792e+00
	memrrow758	3.410123e+00
	memrcol719	3.465588e+00
	memrrow719	3.492629e+00
	memrcol681	3.551211e+00
	memrrow681	3.577840e+00
	memrcol644	3.639635e+00
	memrrow644	3.665714e+00
	memrcol608	3.730820e+00
	memrrow608	3.756195e+00
	memrcol573	3.824712e+00
	memrrow573	3.849214e+00
	memrcol539	3.921239e+00
	memrrow539	3.944683e+00
	memrcol506	4.020312e+00
	memrrow506	4.042497e+00
	memrcol474	4.121817e+00
	memrrow474	4.142529e+00
	memrcol443	4.225623e+00
	memrrow443	4.244633e+00
	memrcol413	4.331567e+00
	memrrow413	4.348637e+00
	memrcol384	4.439465e+00
	memrrow384	4.454349e+00
	memrcol356	4.549100e+00
	memrrow356	4.561549e+00
	memrcol329	4.660225e+00
	memrrow329	4.669993e+00
	memrcol303	4.772564e+00
	memrrow303	4.779415e+00
	memrcol278	4.885805e+00
	memrrow278	4.889522e+00
	memrcol254	4.999606e+00
	memrcol2535	2.148405e+00
	memrrow2535	2.169645e+00
	memrcol2464	2.150509e+00
	memrrow2464	2.171769e+00
	memrcol2394	2.154720e+00
	memrrow2394	2.176019e+00
	memrcol2325	2.161041e+00
	memrrow2325	2.182398e+00
	memrcol2257	2.169478e+00
	memrrow2257	2.190914e+00
	memrcol2190	2.180040e+00
	memrrow2190	2.201573e+00
	memrcol2124	2.192737e+00
	memrrow2124	2.214386e+00
	memrcol2059	2.207580e+00
	memrrow2059	2.229363e+00
	memrcol1995	2.224583e+00
	memrrow1995	2.246519e+00
	memrcol1932	2.243763e+00
	memrrow1932	2.265868e+00
[...]
          p           4.61961e-08           4.60916e-08            4.5959e-08

 Resistor: Simple linear resistor
     device                 r1818                 r1778                 r1739
      model                     R                     R                     R
 resistance                 10000                 10000                 10000
          i           2.13994e-06           2.13516e-06           2.12934e-06
          p           4.57933e-08           4.55892e-08           4.53409e-08

 Resistor: Simple linear resistor
     device                 r1701                 r1664                 r1628
      model                     R                     R                     R
 resistance                 10000                 10000                 10000
          i           2.12232e-06           2.11394e-06           2.10404e-06
          p           4.50424e-08           4.46875e-08           4.42697e-08

 Resistor: Simple linear resistor
     device                 r1593                 r1559                 r1526
      model                     R                     R                     R
 resistance                 10000                 10000                 10000
          i           2.09243e-06           2.07892e-06           2.06333e-06
          p           4.37825e-08           4.32191e-08           4.25732e-08

 Resistor: Simple linear resistor
     device                 r1494                 r1463                 r1433
      model                     R                     R                     R
 resistance                 10000                 10000                 10000
          i           2.04544e-06           2.02506e-06           2.00197e-06
          p           4.18384e-08           4.10088e-08           4.00788e-08

 Resistor: Simple linear resistor
     device                 r1404                 r1376                 r1349
      model                     R                     R                     R
 resistance                 10000                 10000                 10000
          i           1.97595e-06           1.94679e-06           1.91428e-06
          p           3.90439e-08           3.79001e-08           3.66446e-08

 Resistor: Simple linear resistor
     device                 r1323                 r1298                 r1274
      model                     R                     R                     R
 resistance                 10000                 10000                 10000
          i           1.87819e-06           1.83833e-06           1.79449e-06
          p           3.52761e-08           3.37945e-08           3.22019e-08

 Resistor: Simple linear resistor
     device                 r1251                 r1229                 r1208
      model                     R                     R                     R
 resistance                 10000                 10000                 10000
          i           1.74648e-06           1.69414e-06            1.6373e-06
          p            3.0502e-08            2.8701e-08           2.68074e-08

 Resistor: Simple linear resistor
     device                 r1188                 r1169                 r1151
      model                     R                     R                     R
 resistance                 10000                 10000                 10000
          i           1.57582e-06           1.50961e-06           1.43859e-06
          p           2.48322e-08           2.27894e-08           2.06953e-08

 Resistor: Simple linear resistor
     device                 r1134                 r1118                 r1103
      model                     R                     R                     R
 resistance                 10000                 10000                 10000
          i           1.36269e-06           1.28193e-06           1.19634e-06
          p           1.85694e-08           1.64336e-08           1.43124e-08

 Resistor: Simple linear resistor
     device                  r189                  r176                  r164
      model                     R                     R                     R
 resistance                 10000                 10000                 10000
          i             1.106e-06           1.01105e-06           9.11684e-07
          p           1.22325e-08           1.02223e-08           8.31168e-09

 Resistor: Simple linear resistor
     device                  r153                  r143                  r134
      model                     R                     R                     R
 resistance                 10000                 10000                 10000
          i           8.08142e-07           7.00737e-07           5.89839e-07
          p           6.53093e-09           4.91032e-09            3.4791e-09

 Resistor: Simple linear resistor
     device                  r126                  r119                  r113
      model                     R                     R                     R
 resistance                 10000                 10000                 10000
          i           4.75881e-07           3.59355e-07           2.40812e-07
          p           2.26463e-09           1.29136e-09           5.79904e-10

 Resistor: Simple linear resistor
     device                   r18                   r14                  r450
      model                     R                     R                     R
 resistance                 10000                 10000                 1e-09
          i           1.20853e-07           1.25451e-10            0.00149569
          p           1.46055e-10           1.57378e-16            2.2371e-15

 Resistor: Simple linear resistor
     device                  r449                  r448                  r447
      model                     R                     R                     R
 resistance                 1e-09                 1e-09                 1e-09
          i            0.00122036            0.00100719           0.000840217
          p           1.48927e-15           1.01444e-15           7.05964e-16

 Resistor: Simple linear resistor
     device                  r446                  r445                  r444
      model                     R                     R                     R
 resistance                 1e-09                 1e-09                 1e-09
          i           0.000709655            0.00060485           0.000522249
          p            5.0361e-16           3.65843e-16           2.72744e-16

 Resistor: Simple linear resistor
     device                  r443                  r442                  r441
      model                     R                     R                     R
 resistance                 1e-09                 1e-09                 1e-09
          i           0.000456524           0.000402345           0.000358824
          p           2.08414e-16           1.61881e-16           1.28755e-16

 Resistor: Simple linear resistor
     device                  r440                  r439                  r438
      model                     R                     R                     R
 resistance                 1e-09                 1e-09                 1e-09
          i           0.000321521           0.000291323           0.000265565
          p           1.03375e-16           8.48688e-17            7.0525e-17

 Resistor: Simple linear resistor
     device                  r437                  r436                  r435
      model                     R                     R                     R
 resistance                 1e-09                 1e-09                 1e-09
          i           0.000244249           0.000226485           0.000210498
          p           5.96576e-17           5.12957e-17           4.43095e-17

 Resistor: Simple linear resistor
     device                  r434                  r433                  r432
      model                     R                     R                     R
 resistance                 1e-09                 1e-09                 1e-09
          i           0.000197176           0.000185629           0.000174083
          p           3.88782e-17           3.44582e-17           3.03049e-17

 Resistor: Simple linear resistor
     device                  r431                  r430                  r429
      model                     R                     R                     R
 resistance                 1e-09                 1e-09                 1e-09
          i           0.000166089           0.000156319           0.000149214
          p           2.75857e-17           2.44358e-17           2.22648e-17

 Resistor: Simple linear resistor
     device                  r428                  r427                  r426
      model                     R                     R                     R
 resistance                 1e-09                 1e-09                 1e-09
          i           0.000142109           0.000136779           0.000130562
          p           2.01948e-17           1.87086e-17           1.70465e-17

 Resistor: Simple linear resistor
     device                  r425                  r424                  r423
      model                     R                     R                     R
 resistance                 1e-09                 1e-09                 1e-09
          i            0.00012701            0.00012168           0.000118128
          p           1.61314e-17           1.48061e-17           1.39542e-17

 Resistor: Simple linear resistor
     device                  r422                  r421                  r420
      model                     R                     R                     R
 resistance                 1e-09                 1e-09                 1e-09
          i           0.000113687           0.000110134           0.000106581
          p           1.29247e-17           1.21295e-17           1.13596e-17

 Resistor: Simple linear resistor
     device                  r419                  r418                  r417
      model                     R                     R                     R
 resistance                 1e-09                 1e-09                 1e-09
          i           0.000103917           0.000101252           9.85878e-05
          p           1.07987e-17            1.0252e-17           9.71956e-18

 Resistor: Simple linear resistor
     device                  r416                  r415                  r414
      model                     R                     R                     R
 resistance                 1e-09                 1e-09                 1e-09
          i           9.68114e-05           9.50351e-05           9.23706e-05
          p           9.37246e-18           9.03167e-18           8.53232e-18

 Resistor: Simple linear resistor
     device                  r413                  r412                  r411
      model                     R                     R                     R
 resistance                 1e-09                 1e-09                 1e-09
          i           9.14824e-05            8.9706e-05           8.79297e-05
          p           8.36903e-18           8.04717e-18           7.73163e-18

 Resistor: Simple linear resistor
     device                  r410                   r49                   r48
      model                     R                     R                     R
 resistance                 1e-09                 1e-09                 1e-09
          i           8.70415e-05           8.61533e-05           8.52651e-05
          p           7.57622e-18           7.42239e-18           7.27014e-18

 Resistor: Simple linear resistor
     device                   r47                   r46                   r45
      model                     R                     R                     R
 resistance                 1e-09                 1e-09                 1e-09
          i           8.43769e-05           8.34888e-05           8.26006e-05
          p           7.11947e-18           6.97037e-18           6.82286e-18

 Resistor: Simple linear resistor
     device                   r44                   r43                   r42
      model                     R                     R                     R
 resistance                 1e-09                 1e-09                 1e-09
          i           8.26006e-05           8.17124e-05           8.17124e-05
          p           6.82286e-18           6.67692e-18           6.67692e-18

 Resistor: Simple linear resistor
     device                   r41
      model                     R
 resistance                 1e-09
          i           8.17124e-05
          p           6.67692e-18

 Vsource: Independent voltage source
     device                   v50                   v49                   v48
         dc                     5                     5                     5
      acmag                     0                     0                     0
          i           -0.00149536           -0.00121975           -0.00100708
          p           -0.00747681           -0.00609875            -0.0050354

 Vsource: Independent voltage source
     device                   v47                   v46                   v45
         dc                     5                     5                     5
      acmag                     0                     0                     0
          i          -0.000840187          -0.000709534           -0.00060463
          p           -0.00420094           -0.00354767           -0.00302315

 Vsource: Independent voltage source
     device                   v44                   v43                   v42
         dc                     5                     5                     5
      acmag                     0                     0                     0
          i           -0.00052166          -0.000455856          -0.000402451
          p            -0.0026083           -0.00227928           -0.00201225

 Vsource: Independent voltage source
     device                   v41                   v40                   v39
         dc                     5                     5                     5
      acmag                     0                     0                     0
          i          -0.000358582          -0.000321388          -0.000290871
          p           -0.00179291           -0.00160694           -0.00145435

 Vsource: Independent voltage source
     device                   v38                   v37                   v36
         dc                     5                     5                     5
      acmag                     0                     0                     0
          i          -0.000265121          -0.000244141          -0.000226021
          p           -0.00132561            -0.0012207            -0.0011301

 Vsource: Independent voltage source
     device                   v35                   v34                   v33
         dc                     5                     5                     5
      acmag                     0                     0                     0
          i          -0.000209808          -0.000196457          -0.000185013
          p           -0.00104904          -0.000982285          -0.000925064

 Vsource: Independent voltage source
     device                   v32                   v31                   v30
         dc                     5                     5                     5
      acmag                     0                     0                     0
          i          -0.000173569          -0.000165939          -0.000156403
          p          -0.000867844          -0.000829697          -0.000782013

 Vsource: Independent voltage source
     device                   v29                   v28                   v27
         dc                     5                     5                     5
      acmag                     0                     0                     0
          i          -0.000148773          -0.000142097          -0.000136375
          p          -0.000743866          -0.000710487          -0.000681877

 Vsource: Independent voltage source
     device                   v26                   v25                   v24
         dc                     5                     5                     5
      acmag                     0                     0                     0
          i          -0.000130653          -0.000126839          -0.000121117
          p          -0.000653267          -0.000634193          -0.000605583

 Vsource: Independent voltage source
     device                   v23                   v22                   v21
         dc                     5                     5                     5
      acmag                     0                     0                     0
          i          -0.000117302          -0.000113487          -0.000109673
          p           -0.00058651          -0.000567436          -0.000548363

 Vsource: Independent voltage source
     device                   v20                   v19                   v18
         dc                     5                     5                     5
      acmag                     0                     0                     0
          i          -0.000105858          -0.000103951          -0.000101089
          p          -0.000529289          -0.000519753          -0.000505447

 Vsource: Independent voltage source
     device                   v17                   v16                   v15
         dc                     5                     5                     5
      acmag                     0                     0                     0
          i          -9.82285e-05          -9.63211e-05          -9.44138e-05
          p          -0.000491142          -0.000481606          -0.000472069

 Vsource: Independent voltage source
     device                   v14                   v13                   v12
         dc                     5                     5                     5
      acmag                     0                     0                     0
          i          -9.15527e-05          -9.15527e-05          -8.96454e-05
          p          -0.000457764          -0.000457764          -0.000448227

 Vsource: Independent voltage source
     device                   v11                   v10                    v9
         dc                     5                     5                     5
      acmag                     0                     0                     0
          i           -8.7738e-05          -8.67844e-05          -8.58307e-05
          p           -0.00043869          -0.000433922          -0.000429153

 Vsource: Independent voltage source
     device                    v8                    v7                    v6
         dc                     5                     5                     5
      acmag                     0                     0                     0
          i           -8.4877e-05          -8.39233e-05          -8.29697e-05
          p          -0.000424385          -0.000419617          -0.000414848

 Vsource: Independent voltage source
     device                    v5                    v4                    v3
         dc                     5                     5                     5
      acmag                     0                     0                     0
          i           -8.2016e-05           -8.2016e-05          -8.10623e-05
          p           -0.00041008           -0.00041008          -0.000405312

 Vsource: Independent voltage source
     device                    v2                    v1
         dc                     5                     5
      acmag                     0                     0
          i          -8.10623e-05          -8.10623e-05
          p          -0.000405312          -0.000405312

CPU time since last call: 0.884 seconds.

Total CPU time: 0.884 seconds.

MacSpice memory reserved: 41943040,
MacSpice memory peak use: 17561376,
MacSpice memory in use:   17148560.

