
Circuit: *mat_array_06_11_13_58_58_591.cir


Circuit: *mat_array_06_11_13_58_58_591.cir
Date: Tue Jun 11 13:58:58  2019


Operating point information:

	Node	Voltage
	----	-------
	i_44	0.000000e+00
	i_35	0.000000e+00
	i_27	0.000000e+00
	i_20	0.000000e+00
	i_14	0.000000e+00
	i_9	0.000000e+00
	i_5	0.000000e+00
	i_2	0.000000e+00
	colc_8	0.000000e+00
	colc_7	0.000000e+00
	colc_6	0.000000e+00
	colc_5	0.000000e+00
	colc_4	0.000000e+00
	colc_3	0.000000e+00
	colc_2	0.000000e+00
	colc_1	0.000000e+00
	memrcol161	-1.54602e-13
	memrcol143	1.471418e-12
	memrcol126	1.445285e-12
	memrcol110	-1.52636e-12
	memrcol95	-1.74716e-12
	memrcol81	2.494543e-13
	memrcol68	-2.99680e-13
	memrcol56	2.676191e-12
	memrrow162	-1.60069e+00
	memrrow145	4.158258e+00
	memrrow129	-4.20653e+00
	memrrow114	3.500677e+00
	memrrow100	-1.56486e+00
	memrrow87	3.139714e+00
	memrrow75	2.353444e+00
	memrrow64	3.837483e+00
	memrcol144	-1.54602e-02
	memrrow144	-1.60069e+00
	memrcol127	1.471418e-01
	memrrow127	-1.75921e+00
	memrcol111	1.445285e-01
	memrrow111	-1.91831e+00
	memrcol96	-1.52636e-01
	memrrow96	-2.28369e+00
	memrcol82	-1.74716e-01
	memrrow82	-2.86217e+00
	memrcol69	2.494543e-02
	memrrow69	-3.44105e+00
	memrcol57	-2.99680e-02
	memrrow57	-4.02098e+00
	memrcol46	2.676191e-01
	memrcol128	1.276027e-01
	memrrow128	4.158258e+00
	memrcol112	2.948543e-01
	memrrow112	4.158862e+00
	memrcol97	4.953406e-01
	memrrow97	4.160623e+00
	memrcol83	-9.21678e-02
	memrrow83	4.162751e+00
	memrcol70	-3.49029e-01
	memrrow70	4.165517e+00
	memrcol58	5.092858e-02
	memrrow58	4.168734e+00
	memrcol47	3.391647e-01
	memrrow47	4.583732e+00
	memrcol37	5.360280e-01
	memrcol113	2.700614e-01
	memrrow113	-4.20653e+00
	memrcol98	4.414100e-01
	memrrow98	-4.20698e+00
	memrcol84	8.457862e-01
	memrrow84	-4.20789e+00
	memrcol71	-3.23372e-02
	memrrow71	-4.20931e+00
	memrcol59	-5.23793e-01
	memrrow59	-4.21197e+00
	memrcol48	-3.34869e-01
	memrrow48	-4.21575e+00
	memrcol38	7.070267e-01
	memrrow38	-4.60761e+00
	memrcol29	3.580397e-01
	memrcol99	4.129676e-01
	memrrow99	3.500677e+00
	memrcol85	5.884305e-01
	memrrow85	3.501140e+00
	memrcol72	1.196737e+00
	memrrow72	3.502040e+00
	memrcol60	2.874398e-02
	memrrow60	3.733470e+00
	memrcol49	-6.97453e-01
	memrrow49	3.965455e+00
	memrcol39	-3.32578e-01
	memrrow39	4.198139e+00
	memrcol30	1.075420e+00
	memrrow30	4.431277e+00
	memrcol22	7.158553e-01
	memrcol86	5.554110e-01
	memrrow86	-1.56486e+00
	memrcol73	7.350143e-01
	memrrow73	-1.77689e+00
	memrcol61	1.317158e+00
	memrrow61	-1.98916e+00
	memrcol50	8.926976e-02
	memrrow50	-2.20177e+00
	memrcol40	-8.71812e-01
	memrrow40	-2.64349e+00
	memrcol31	-3.30741e-01
	memrrow31	-3.26237e+00
	memrcol23	1.108228e+00
	memrrow23	-3.88169e+00
	memrcol16	1.072388e+00
	memrcol74	9.098814e-01
	memrrow74	3.139714e+00
	memrcol62	8.818493e-01
	memrrow62	3.362697e+00
	memrcol51	1.437909e+00
	memrrow51	3.586423e+00
	memrcol41	3.788999e-01
	memrrow41	3.810364e+00
	memrcol32	-8.69003e-01
	memrrow32	4.035332e+00
	memrcol24	-3.28464e-01
	memrrow24	4.261036e+00
	memrcol17	1.640027e+00
	memrrow17	4.488114e+00
	memrcol11	1.430739e+00
	memrcol63	1.041369e+00
	memrrow63	2.353444e+00
	memrcol52	1.027941e+00
	memrrow52	2.484652e+00
	memrcol42	1.558446e+00
	memrrow42	2.761530e+00
	memrcol33	6.675026e-01
	memrrow33	3.158717e+00
	memrcol25	-8.66930e-01
	memrrow25	3.556154e+00
	memrcol18	-3.27561e-01
	memrrow18	3.954914e+00
	memrcol12	1.887018e+00
	memrrow12	4.354103e+00
	memrcol7	1.432164e+00
	memrcol53	1.041648e+00
	memrrow53	3.837483e+00
	memrcol43	1.028363e+00
	memrrow43	3.837763e+00
	memrcol34	1.558674e+00
	memrrow34	3.838464e+00
	memrcol26	9.558563e-01
	memrrow26	3.839393e+00
	memrcol19	-8.66182e-01
	memrrow19	4.128675e+00
	memrcol13	-3.27087e-01
	memrrow13	4.418706e+00
	memrcol8	1.887300e+00
	memrrow8	4.709212e+00
	memrcol4	1.432521e+00
	memrrow46	-5.00000e+00
	memrrow37	5.000000e+00
	memrrow29	-5.00000e+00
	memrrow22	5.000000e+00
	memrrow16	-5.00000e+00
	memrrow11	5.000000e+00
	memrrow7	5.000000e+00
	memrrow4	5.000000e+00
	i_36	0.000000e+00
	i_28	0.000000e+00
	i_21	0.000000e+00
	i_15	0.000000e+00
	i_10	0.000000e+00
	i_6	0.000000e+00
	i_3	0.000000e+00
	i_1	0.000000e+00
	rowc_8	-5.00000e+00
	rowc_7	5.000000e+00
	rowc_6	-5.00000e+00
	rowc_5	5.000000e+00
	rowc_4	-5.00000e+00
	rowc_3	5.000000e+00
	rowc_2	5.000000e+00
	rowc_1	5.000000e+00

	Source	Current
	------	-------

	v1#branch	-2.91061e-03
	v3#branch	-6.46877e-03
	v6#branch	-8.68797e-03
	v10#branch	1.120090e-02
	v15#branch	-5.70011e-03
	v21#branch	9.282112e-03
	v28#branch	-8.62694e-03
	v36#branch	9.797096e-03
	v2#branch	2.676191e-03
	v5#branch	-2.99680e-04
	v9#branch	2.494543e-04
	v14#branch	-1.74716e-03
	v20#branch	-1.52636e-03
	v27#branch	1.445285e-03
	v35#branch	1.471418e-03
	v44#branch	-1.54602e-04

 Resistor models (Simple linear resistor)
      model                     R

        rsh                     0
     narrow                     0
        tc1                     0
        tc2                     0
       defw                 1e-05

 Isource: Independent current source
     device                   i44                   i35                   i27
         dc                    -0                    -0                    -0
      acmag                     0                     0                     0
          v                     0                     0                     0
          p                    -0                    -0                    -0

 Isource: Independent current source
     device                   i20                   i14                    i9
         dc                    -0                    -0                    -0
      acmag                     0                     0                     0
          v                     0                     0                     0
          p                    -0                    -0                    -0

 Isource: Independent current source
     device                    i5                    i2                   i36
         dc                    -0                    -0                    -0
      acmag                     0                     0                     0
          v                     0                     0                     0
          p                    -0                    -0                    -0

 Isource: Independent current source
     device                   i28                   i21                   i15
         dc                    -0                    -0                    -0
      acmag                     0                     0                     0
          v                     0                     0                     0
          p                    -0                    -0                    -0

 Isource: Independent current source
     device                   i10                    i6                    i3
         dc                    -0                    -0                    -0
      acmag                     0                     0                     0
          v                     0                     0                     0
          p                    -0                    -0                    -0

 Isource: Independent current source
     device                    i1
         dc                    -0
      acmag                     0
          v                     0
          p                    -0

 Resistor: Simple linear resistor
     device                   r58                   r57                   r56
      model                     R                     R                     R
 resistance                 1e-09                 1e-09                 1e-09
          i          -0.000154602            0.00147142            0.00144528
          p           2.39017e-17           2.16507e-15           2.08885e-15

 Resistor: Simple linear resistor
     device                   r55                   r54                   r53
      model                     R                     R                     R
 resistance                 1e-09                 1e-09                 1e-09
          i           -0.00152636           -0.00174716           0.000249454
          p           2.32979e-15           3.05256e-15           6.22274e-17

 Resistor: Simple linear resistor
     device                   r52                   r51                 r3144
      model                     R                     R                     R
 resistance                 1e-09                 1e-09                   100
          i           -0.00029968            0.00267619          -0.000154602
          p           8.98083e-17             7.162e-15           2.39017e-06

 Resistor: Simple linear resistor
     device                 r3127                 r3111                  r396
      model                     R                     R                     R
 resistance                   100                   100                   100
          i            0.00147142            0.00144528           -0.00152636
          p           0.000216507           0.000208885           0.000232979

 Resistor: Simple linear resistor
     device                  r382                  r369                  r357
      model                     R                     R                     R
 resistance                   100                   100                   100
          i           -0.00174716           0.000249454           -0.00029968
          p           0.000305256           6.22274e-06           8.98083e-06

 Resistor: Simple linear resistor
     device                  r346                 r3128                 r3112
      model                     R                     R                     R
 resistance                   100                   100                   100
          i            0.00267619            0.00143063            0.00147713
          p             0.0007162            0.00020467            0.00021819

 Resistor: Simple linear resistor
     device                  r397                  r383                  r370
      model                     R                     R                     R
 resistance                   100                   100                   100
          i            0.00350812           0.000604685           -0.00174313
          p            0.00123069           3.65644e-05            0.00030385

 Resistor: Simple linear resistor
     device                  r358                  r347                  r337
      model                     R                     R                     R
 resistance                   100                   100                   100
          i           0.000259832            0.00369133            0.00268409
          p           6.75124e-06            0.00136259           0.000720433

 Resistor: Simple linear resistor
     device                 r3113                  r398                  r384
      model                     R                     R                     R
 resistance                   100                   100                   100
          i            0.00142459            0.00146556            0.00350446
          p           0.000202945           0.000214786            0.00122812

 Resistor: Simple linear resistor
     device                  r371                  r359                  r348
      model                     R                     R                     R
 resistance                   100                   100                   100
          i           0.000598306           -0.00174764           -0.00385797
          p            3.5797e-05           0.000305425             0.0014884

 Resistor: Simple linear resistor
     device                  r338                  r329                  r399
      model                     R                     R                     R
 resistance                   100                   100                   100
          i            0.00367862           -0.00177988            0.00142906
          p            0.00135322           0.000316798           0.000204222

 Resistor: Simple linear resistor
     device                  r385                  r372                  r360
      model                     R                     R                     R
 resistance                   100                   100                   100
          i             0.0014702            0.00350951           0.000610812
          p            0.00021615            0.00123167           3.73091e-05

 Resistor: Simple linear resistor
     device                  r349                  r339                  r330
      model                     R                     R                     R
 resistance                   100                   100                   100
          i            -0.0017366           2.29048e-05            0.00368393
          p           0.000301578           5.24628e-08            0.00135714

 Resistor: Simple linear resistor
     device                  r322                  r386                  r373
      model                     R                     R                     R
 resistance                   100                   100                   100
          i            0.00357816            0.00142443            0.00146584
          p            0.00128032           0.000202901           0.000214868

 Resistor: Simple linear resistor
     device                  r361                  r350                  r340
      model                     R                     R                     R
 resistance                   100                   100                   100
          i            0.00120421           0.000605258           -0.00174359
          p           0.000145011           3.66337e-05           0.000304011

 Resistor: Simple linear resistor
     device                  r331                  r323                  r316
      model                     R                     R                     R
 resistance                   100                   100                   100
          i            1.8374e-05           0.000328077            0.00356533
          p           3.37605e-08           1.07635e-05            0.00127116

 Resistor: Simple linear resistor
     device                  r374                  r362                  r351
      model                     R                     R                     R
 resistance                   100                   100                   100
          i             0.0035447            0.00146835            0.00120751
          p            0.00125649           0.000215605           0.000145809

 Resistor: Simple linear resistor
     device                  r341                  r332                  r324
      model                     R                     R                     R
 resistance                   100                   100                   100
          i             0.0028963           2.80841e-05           2.27693e-05
          p           0.000838856           7.88719e-08            5.1844e-08

 Resistor: Simple linear resistor
     device                  r317                  r311                  r363
      model                     R                     R                     R
 resistance                   100                   100                   100
          i            0.00531799            0.00358351            0.00131487
          p            0.00282811            0.00128415           0.000172889

 Resistor: Simple linear resistor
     device                  r352                  r342                  r333
      model                     R                     R                     R
 resistance                   100                   100                   100
          i            0.00146092            0.00120536            0.00288603
          p           0.000213429            0.00014529           0.000832915

 Resistor: Simple linear resistor
     device                  r325                  r318                  r312
      model                     R                     R                     R
 resistance                   100                   100                   100
          i           2.07313e-05           9.02827e-06            0.00246991
          p           4.29787e-08           8.15096e-09           0.000610044

 Resistor: Simple linear resistor
     device                   r37                  r353                  r343
      model                     R                     R                     R
 resistance                   100                   100                   100
          i           1.42496e-05           2.79584e-06           4.21199e-06
          p           2.03052e-08           7.81669e-10           1.77409e-09

 Resistor: Simple linear resistor
     device                  r334                  r326                  r319
      model                     R                     R                     R
 resistance                   100                   100                   100
          i           2.27979e-06            0.00288354           7.48854e-06
          p           5.19744e-10           0.000831478           5.60782e-09

 Resistor: Simple linear resistor
     device                  r313                   r38                   r34
      model                     R                     R                     R
 resistance                   100                   100                   100
          i           4.74579e-06           2.82191e-06           3.56748e-06
          p           2.25225e-09           7.96319e-10           1.27269e-09

 Resistor: Simple linear resistor
     device                 r2144                 r2127                 r2111
      model                     R                     R                     R
 resistance                   100                   100                   100
          i                     0           -0.00158523           -0.00159094
          p                     0           0.000251296           0.000253109

 Resistor: Simple linear resistor
     device                  r296                  r282                  r269
      model                     R                     R                     R
 resistance                   100                   100                   100
          i           -0.00365377           -0.00578482           -0.00578885
          p            0.00133501            0.00334642            0.00335108

 Resistor: Simple linear resistor
     device                  r257                  r246                 r2128
      model                     R                     R                     R
 resistance                   100                   100                   100
          i           -0.00579923           -0.00979024                     0
          p            0.00336311            0.00958488                     0

 Resistor: Simple linear resistor
     device                 r2112                  r297                  r283
      model                     R                     R                     R
 resistance                   100                   100                   100
          i           6.04296e-06           1.76118e-05           2.12771e-05
          p           3.65174e-09           3.10177e-08           4.52716e-08

 Resistor: Simple linear resistor
     device                  r270                  r258                  r247
      model                     R                     R                     R
 resistance                   100                   100                   100
          i           2.76563e-05           3.21709e-05            0.00414998
          p           7.64872e-08           1.03496e-07            0.00172223

 Resistor: Simple linear resistor
     device                  r237                 r2113                  r298
      model                     R                     R                     R
 resistance                   100                   100                   100
          i            0.00416268                     0          -4.47659e-06
          p            0.00173279                     0           2.00399e-09

 Resistor: Simple linear resistor
     device                  r284                  r271                  r259
      model                     R                     R                     R
 resistance                   100                   100                   100
          i          -9.12498e-06          -1.41787e-05          -2.66845e-05
          p           8.32652e-09           2.01034e-08           7.12065e-08

 Resistor: Simple linear resistor
     device                  r248                  r238                  r229
      model                     R                     R                     R
 resistance                   100                   100                   100
          i           -3.7727e-05           -0.00391861           -0.00392392
          p           1.42333e-07            0.00153555            0.00153972

 Resistor: Simple linear resistor
     device                  r299                  r285                  r272
      model                     R                     R                     R
 resistance                   100                   100                   100
          i                     0           4.62925e-06           8.99613e-06
          p                     0             2.143e-09           8.09304e-09

 Resistor: Simple linear resistor
     device                  r260                  r249                  r239
      model                     R                     R                     R
 resistance                   100                   100                   100
          i             0.0023143            0.00231985            0.00232684
          p           0.000535598           0.000538172            0.00054142

 Resistor: Simple linear resistor
     device                  r230                  r222                  r286
      model                     R                     R                     R
 resistance                   100                   100                   100
          i            0.00233137            0.00568723                     0
          p           0.000543531            0.00323446                     0

 Resistor: Simple linear resistor
     device                  r273                  r261                  r250
      model                     R                     R                     R
 resistance                   100                   100                   100
          i           -0.00212027           -0.00212278           -0.00212609
          p           0.000449555           0.000450621           0.000452025

 Resistor: Simple linear resistor
     device                  r240                  r231                  r223
      model                     R                     R                     R
 resistance                   100                   100                   100
          i           -0.00441713           -0.00618881            -0.0061932
          p            0.00195111            0.00383013            0.00383558

 Resistor: Simple linear resistor
     device                  r216                  r274                  r262
      model                     R                     R                     R
 resistance                   100                   100                   100
          i            -0.0111831                     0            0.00222983
          p             0.0125062                     0           0.000497215

 Resistor: Simple linear resistor
     device                  r251                  r241                  r232
      model                     R                     R                     R
 resistance                   100                   100                   100
          i            0.00223726            0.00223941            0.00224968
          p           0.000500533           0.000501495           0.000506107

 Resistor: Simple linear resistor
     device                  r224                  r217                  r211
      model                     R                     R                     R
 resistance                   100                   100                   100
          i            0.00225704            0.00227078            0.00511886
          p           0.000509421           0.000515643            0.00262028

 Resistor: Simple linear resistor
     device                  r263                  r252                  r242
      model                     R                     R                     R
 resistance                   100                   100                   100
          i                     0            0.00131208            0.00276879
          p                     0           0.000172154           0.000766618

 Resistor: Simple linear resistor
     device                  r233                  r225                  r218
      model                     R                     R                     R
 resistance                   100                   100                   100
          i            0.00397187            0.00397436             0.0039876
          p            0.00157758            0.00157956             0.0015901

 Resistor: Simple linear resistor
     device                  r212                   r27                  r253
      model                     R                     R                     R
 resistance                   100                   100                   100
          i            0.00399189            0.00645897                     0
          p            0.00159352            0.00417183                     0

 Resistor: Simple linear resistor
     device                  r243                  r234                  r226
      model                     R                     R                     R
 resistance                   100                   100                   100
          i           2.79584e-06           7.00783e-06           9.28762e-06
          p           7.81669e-10           4.91097e-09           8.62599e-09

 Resistor: Simple linear resistor
     device                  r219                  r213                   r28
      model                     R                     R                     R
 resistance                   100                   100                   100
          i            0.00289282            0.00290031            0.00290506
          p           0.000836843           0.000841181           0.000843936

 Resistor: Simple linear resistor
     device                   r24                 r1144                 r1127
      model                     R                     R                     R
 resistance                   100                  1000                334000
          i            0.00290788           -0.00158523          -5.70765e-06
          p           0.000845577            0.00251296           1.08808e-05

 Resistor: Simple linear resistor
     device                 r1111                  r196                  r182
      model                     R                     R                     R
 resistance                  1000                  1000                667000
          i           -0.00206284           -0.00213105          -4.02916e-06
          p            0.00425529            0.00454137           1.08282e-05

 Resistor: Simple linear resistor
     device                  r169                  r157                  r146
      model                     R                     R                     R
 resistance                334000                  1000                667000
          i          -1.03772e-05           -0.00399101          -7.89748e-06
          p           3.59675e-05             0.0159281           4.16009e-05

 Resistor: Simple linear resistor
     device                 r1128                 r1112                  r197
      model                     R                     R                     R
 resistance                667000                334000                 1e+06
          i           6.04296e-06           1.15689e-05           3.66528e-06
          p           2.43571e-05           4.47023e-05           1.34343e-05

 Resistor: Simple linear resistor
     device                  r183                  r170                  r158
      model                     R                     R                     R
 resistance                667000                 1e+06                  1000
          i           6.37919e-06           4.51455e-06            0.00411781
          p           2.71429e-05           2.03811e-05             0.0169563

 Resistor: Simple linear resistor
     device                  r147                  r137                 r1113
      model                     R                     R                     R
 resistance                334000                  1000                 1e+06
          i           1.27083e-05            0.00446397          -4.47659e-06
          p           5.39412e-05              0.019927           2.00399e-05

 Resistor: Simple linear resistor
     device                  r198                  r184                  r171
      model                     R                     R                     R
 resistance                 1e+06                 1e+06                334000
          i          -4.64839e-06          -5.05367e-06          -1.25059e-05
          p           2.16075e-05           2.55396e-05           5.22367e-05

 Resistor: Simple linear resistor
     device                  r159                  r148                  r138
      model                     R                     R                     R
 resistance                334000                  1000                 1e+06
          i          -1.10425e-05           -0.00388088          -5.31463e-06
          p           4.07266e-05             0.0150612           2.82453e-05

 Resistor: Simple linear resistor
     device                  r129                  r199                  r185
      model                     R                     R                     R
 resistance                  1000                667000                667000
          i           -0.00535804           4.62925e-06           4.36688e-06
          p             0.0287086           1.42938e-05           1.27195e-05

 Resistor: Simple linear resistor
     device                  r172                  r160                  r149
      model                     R                     R                     R
 resistance                  1000                667000                667000
          i             0.0023053           5.55431e-06           6.99087e-06
          p            0.00531442           2.05772e-05           3.25978e-05

 Resistor: Simple linear resistor
     device                  r139                  r130                  r122
      model                     R                     R                     R
 resistance                 1e+06                  1000                334000
          i           4.53072e-06            0.00335586           1.28268e-05
          p           2.05274e-05             0.0112618           5.49518e-05

 Resistor: Simple linear resistor
     device                  r186                  r173                  r161
      model                     R                     R                     R
 resistance                  1000                 1e+06                 1e+06
          i           -0.00212027           -2.5119e-06          -3.30632e-06
          p            0.00449555           6.30965e-06           1.09318e-05

 Resistor: Simple linear resistor
     device                  r150                  r140                  r131
      model                     R                     R                     R
 resistance                  1000                  1000                667000
          i           -0.00229104           -0.00177168          -4.39524e-06
          p            0.00524888            0.00313883           1.28852e-05

 Resistor: Simple linear resistor
     device                  r123                  r116                  r174
      model                     R                     R                     R
 resistance                  1000                334000                  1000
          i           -0.00498992          -1.81808e-05            0.00222983
          p             0.0248993           0.000110401            0.00497215

 Resistor: Simple linear resistor
     device                  r162                  r151                  r141
      model                     R                     R                     R
 resistance                334000                 1e+06                334000
          i           7.42769e-06           2.14851e-06           1.02738e-05
          p            1.8427e-05           4.61611e-06           3.52543e-05

 Resistor: Simple linear resistor
     device                  r132                  r124                  r117
      model                     R                     R                     R
 resistance                667000                334000                  1000
          i           7.35283e-06            1.3741e-05            0.00284809
          p           3.60607e-05           6.30644e-05             0.0081116

 Resistor: Simple linear resistor
     device                  r111                  r163                  r152
      model                     R                     R                     R
 resistance                  1000                  1000                  1000
          i            0.00356926            0.00131208            0.00145671
          p             0.0127396            0.00172154              0.002122

 Resistor: Simple linear resistor
     device                  r142                  r133                  r125
      model                     R                     R                     R
 resistance                  1000                 1e+06                334000
          i            0.00120308           2.49121e-06           1.32428e-05
          p            0.00144741           6.20615e-06           5.85739e-05

 Resistor: Simple linear resistor
     device                  r118                  r112                   r17
      model                     R                     R                     R
 resistance                 1e+06                  1000                334000
          i           4.28248e-06            0.00246708           1.06821e-05
          p           1.83396e-05            0.00608651           3.81121e-05

 Resistor: Simple linear resistor
     device                  r153                  r143                  r134
      model                     R                     R                     R
 resistance                 1e+06                667000                 1e+06
          i           2.79584e-06           4.21199e-06           2.27979e-06
          p           7.81669e-06           1.18332e-05           5.19744e-06

 Resistor: Simple linear resistor
     device                  r126                  r119                  r113
      model                     R                     R                     R
 resistance                  1000                667000                 1e+06
          i            0.00288354           7.48854e-06           4.74579e-06
          p            0.00831478           3.74042e-05           2.25225e-05

 Resistor: Simple linear resistor
     device                   r18                   r14                   r48
      model                     R                     R                     R
 resistance                 1e+06                 1e+06                 1e-09
          i           2.82191e-06           3.56748e-06            -0.0097975
          p           7.96319e-06           1.27269e-05           9.59909e-14

 Resistor: Simple linear resistor
     device                   r47                   r46                   r45
      model                     R                     R                     R
 resistance                 1e-09                 1e-09                 1e-09
          i            0.00862688           -0.00928235            0.00570033
          p            7.4423e-14           8.61621e-14           3.24938e-14

 Resistor: Simple linear resistor
     device                   r44                   r43                   r42
      model                     R                     R                     R
 resistance                 1e-09                 1e-09                 1e-09
          i            -0.0112017            0.00868816            0.00646949
          p           1.25478e-13           7.54841e-14           4.18543e-14

 Resistor: Simple linear resistor
     device                   r41
      model                     R
 resistance                 1e-09
          i            0.00291056
          p           8.47136e-15

 Vsource: Independent voltage source
     device                   v44                   v35                   v27
         dc                     0                     0                     0
      acmag                     0                     0                     0
          i          -0.000154602            0.00147142            0.00144528
          p                    -0                     0                     0

 Vsource: Independent voltage source
     device                   v20                   v14                    v9
         dc                     0                     0                     0
      acmag                     0                     0                     0
          i           -0.00152636           -0.00174716           0.000249454
          p                    -0                    -0                     0

 Vsource: Independent voltage source
     device                    v5                    v2                   v36
         dc                     0                     0                    -5
      acmag                     0                     0                     0
          i           -0.00029968            0.00267619             0.0097971
          p                    -0                     0            -0.0489855

 Vsource: Independent voltage source
     device                   v28                   v21                   v15
         dc                     5                    -5                     5
      acmag                     0                     0                     0
          i           -0.00862694            0.00928211           -0.00570011
          p            -0.0431347            -0.0464106            -0.0285006

 Vsource: Independent voltage source
     device                   v10                    v6                    v3
         dc                    -5                     5                     5
      acmag                     0                     0                     0
          i             0.0112009           -0.00868797           -0.00646877
          p            -0.0560045            -0.0434399            -0.0323439

 Vsource: Independent voltage source
     device                    v1
         dc                     5
      acmag                     0
          i           -0.00291061
          p            -0.0145531

CPU time since last call: 0.041 seconds.

Total CPU time: 0.041 seconds.

MacSpice memory reserved: 20971520,
MacSpice memory peak use:   727984,
MacSpice memory in use:     556688.

